
---------- Begin Simulation Statistics ----------
simSeconds                                   0.071465                       # Number of seconds simulated (Second)
simTicks                                  71464533240                       # Number of ticks simulated (Tick)
finalTick                                169619113553000                       # Number of ticks from beginning of simulation (restored from checkpoints and never reset) (Tick)
simFreq                                  1000000000000                       # The number of ticks per simulated second ((Tick/Second))
hostSeconds                                   5968.64                       # Real time elapsed on the host (Second)
hostTickRate                                 11973328                       # The number of ticks simulated per host second (ticks/s) ((Tick/Second))
hostMemory                                   19511724                       # Number of bytes of host memory used (Byte)
simInsts                                    239520398                       # Number of instructions simulated (Count)
simOps                                      426222863                       # Number of ops (including micro ops) simulated (Count)
hostInstRate                                    40130                       # Simulator instruction rate (inst/s) ((Count/Second))
hostOpRate                                      71410                       # Simulator op (including micro ops) rate (op/s) ((Count/Second))
system.caches.delayHistogram::bucket_size            8                       # delay histogram for all message (Unspecified)
system.caches.delayHistogram::max_bucket           79                       # delay histogram for all message (Unspecified)
system.caches.delayHistogram::samples         9638342                       # delay histogram for all message (Unspecified)
system.caches.delayHistogram::mean           1.416593                       # delay histogram for all message (Unspecified)
system.caches.delayHistogram::stdev          3.041195                       # delay histogram for all message (Unspecified)
system.caches.delayHistogram             |     8098001     84.02%     84.02% |     1537764     15.95%     99.97% |        2171      0.02%    100.00% |         344      0.00%    100.00% |          56      0.00%    100.00% |           4      0.00%    100.00% |           2      0.00%    100.00% |           0      0.00%    100.00% |           0      0.00%    100.00% |           0      0.00%    100.00% # delay histogram for all message (Unspecified)
system.caches.delayHistogram::total           9638342                       # delay histogram for all message (Unspecified)
system.caches.m_outstandReqHistSeqr::bucket_size            2                       (Unspecified)
system.caches.m_outstandReqHistSeqr::max_bucket           19                       (Unspecified)
system.caches.m_outstandReqHistSeqr::samples    185091566                       (Unspecified)
system.caches.m_outstandReqHistSeqr::mean     1.792032                       (Unspecified)
system.caches.m_outstandReqHistSeqr::gmean     1.429571                       (Unspecified)
system.caches.m_outstandReqHistSeqr::stdev     1.880211                       (Unspecified)
system.caches.m_outstandReqHistSeqr      |   118944036     64.26%     64.26% |    53840159     29.09%     93.35% |     5591318      3.02%     96.37% |     1921397      1.04%     97.41% |     1492836      0.81%     98.22% |     1101223      0.59%     98.81% |     1028049      0.56%     99.37% |      693195      0.37%     99.74% |      479353      0.26%    100.00% |           0      0.00%    100.00% (Unspecified)
system.caches.m_outstandReqHistSeqr::total    185091566                       (Unspecified)
system.caches.m_latencyHistSeqr::bucket_size          512                       (Unspecified)
system.caches.m_latencyHistSeqr::max_bucket         5119                       (Unspecified)
system.caches.m_latencyHistSeqr::samples    187108298                       (Unspecified)
system.caches.m_latencyHistSeqr::mean        2.433146                       (Unspecified)
system.caches.m_latencyHistSeqr::gmean       1.042112                       (Unspecified)
system.caches.m_latencyHistSeqr::stdev      34.117077                       (Unspecified)
system.caches.m_latencyHistSeqr          |   186903588     99.89%     99.89% |      150648      0.08%     99.97% |       44034      0.02%     99.99% |        7153      0.00%    100.00% |        1604      0.00%    100.00% |        1094      0.00%    100.00% |         150      0.00%    100.00% |          23      0.00%    100.00% |           1      0.00%    100.00% |           3      0.00%    100.00% (Unspecified)
system.caches.m_latencyHistSeqr::total      187108298                       (Unspecified)
system.caches.m_hitLatencyHistSeqr::bucket_size           64                       (Unspecified)
system.caches.m_hitLatencyHistSeqr::max_bucket          639                       (Unspecified)
system.caches.m_hitLatencyHistSeqr::samples    185312410                       (Unspecified)
system.caches.m_hitLatencyHistSeqr::mean     1.010948                       (Unspecified)
system.caches.m_hitLatencyHistSeqr::gmean     1.007595                       (Unspecified)
system.caches.m_hitLatencyHistSeqr::stdev     0.143442                       (Unspecified)
system.caches.m_hitLatencyHistSeqr       |   185312398    100.00%    100.00% |           0      0.00%    100.00% |           0      0.00%    100.00% |           0      0.00%    100.00% |           4      0.00%    100.00% |           6      0.00%    100.00% |           0      0.00%    100.00% |           0      0.00%    100.00% |           0      0.00%    100.00% |           2      0.00%    100.00% (Unspecified)
system.caches.m_hitLatencyHistSeqr::total    185312410                       (Unspecified)
system.caches.m_missLatencyHistSeqr::bucket_size          512                       (Unspecified)
system.caches.m_missLatencyHistSeqr::max_bucket         5119                       (Unspecified)
system.caches.m_missLatencyHistSeqr::samples      1795888                       (Unspecified)
system.caches.m_missLatencyHistSeqr::mean   149.185572                       (Unspecified)
system.caches.m_missLatencyHistSeqr::gmean    33.677604                       (Unspecified)
system.caches.m_missLatencyHistSeqr::stdev   315.474368                       (Unspecified)
system.caches.m_missLatencyHistSeqr      |     1591180     88.60%     88.60% |      150646      8.39%     96.99% |       44034      2.45%     99.44% |        7153      0.40%     99.84% |        1604      0.09%     99.93% |        1094      0.06%     99.99% |         150      0.01%    100.00% |          23      0.00%    100.00% |           1      0.00%    100.00% |           3      0.00%    100.00% (Unspecified)
system.caches.m_missLatencyHistSeqr::total      1795888                       (Unspecified)
system.caches.delayVCHist.vnet_0::bucket_size            8                       # delay histogram for vnet_0 (Unspecified)
system.caches.delayVCHist.vnet_0::max_bucket           79                       # delay histogram for vnet_0 (Unspecified)
system.caches.delayVCHist.vnet_0::samples      5316849                       # delay histogram for vnet_0 (Unspecified)
system.caches.delayVCHist.vnet_0::mean       2.171751                       # delay histogram for vnet_0 (Unspecified)
system.caches.delayVCHist.vnet_0::stdev      3.562587                       # delay histogram for vnet_0 (Unspecified)
system.caches.delayVCHist.vnet_0         |     3883425     73.04%     73.04% |     1432638     26.95%     99.99% |         782      0.01%    100.00% |           1      0.00%    100.00% |           0      0.00%    100.00% |           1      0.00%    100.00% |           2      0.00%    100.00% |           0      0.00%    100.00% |           0      0.00%    100.00% |           0      0.00%    100.00% # delay histogram for vnet_0 (Unspecified)
system.caches.delayVCHist.vnet_0::total       5316849                       # delay histogram for vnet_0 (Unspecified)
system.caches.delayVCHist.vnet_1::bucket_size            8                       # delay histogram for vnet_1 (Unspecified)
system.caches.delayVCHist.vnet_1::max_bucket           79                       # delay histogram for vnet_1 (Unspecified)
system.caches.delayVCHist.vnet_1::samples      4294021                       # delay histogram for vnet_1 (Unspecified)
system.caches.delayVCHist.vnet_1::mean       0.490609                       # delay histogram for vnet_1 (Unspecified)
system.caches.delayVCHist.vnet_1::stdev      1.862353                       # delay histogram for vnet_1 (Unspecified)
system.caches.delayVCHist.vnet_1         |     4187104     97.51%     97.51% |      105126      2.45%     99.96% |        1389      0.03%     99.99% |         343      0.01%    100.00% |          56      0.00%    100.00% |           3      0.00%    100.00% |           0      0.00%    100.00% |           0      0.00%    100.00% |           0      0.00%    100.00% |           0      0.00%    100.00% # delay histogram for vnet_1 (Unspecified)
system.caches.delayVCHist.vnet_1::total       4294021                       # delay histogram for vnet_1 (Unspecified)
system.caches.delayVCHist.vnet_2::bucket_size            1                       # delay histogram for vnet_2 (Unspecified)
system.caches.delayVCHist.vnet_2::max_bucket            9                       # delay histogram for vnet_2 (Unspecified)
system.caches.delayVCHist.vnet_2::samples        27472                       # delay histogram for vnet_2 (Unspecified)
system.caches.delayVCHist.vnet_2::mean       0.001893                       # delay histogram for vnet_2 (Unspecified)
system.caches.delayVCHist.vnet_2::stdev      0.061500                       # delay histogram for vnet_2 (Unspecified)
system.caches.delayVCHist.vnet_2         |       27446     99.91%     99.91% |           0      0.00%     99.91% |          26      0.09%    100.00% |           0      0.00%    100.00% |           0      0.00%    100.00% |           0      0.00%    100.00% |           0      0.00%    100.00% |           0      0.00%    100.00% |           0      0.00%    100.00% |           0      0.00%    100.00% # delay histogram for vnet_2 (Unspecified)
system.caches.delayVCHist.vnet_2::total         27472                       # delay histogram for vnet_2 (Unspecified)
system.caches.L1Cache_Controller.Load    |       47643      0.05%      0.05% |       31597      0.03%      0.08% |       32347      0.03%      0.12% |    94515945     99.75%     99.87% |       31356      0.03%     99.90% |       31396      0.03%     99.93% |       32298      0.03%     99.97% |       31848      0.03%    100.00% (Unspecified)
system.caches.L1Cache_Controller.Load::total     94754430                       (Unspecified)
system.caches.L1Cache_Controller.Ifetch  |       35420      0.05%      0.05% |       27805      0.04%      0.09% |       28106      0.04%      0.13% |    71126323     99.72%     99.84% |       27463      0.04%     99.88% |       27451      0.04%     99.92% |       28160      0.04%     99.96% |       28007      0.04%    100.00% (Unspecified)
system.caches.L1Cache_Controller.Ifetch::total     71328735                       (Unspecified)
system.caches.L1Cache_Controller.Store   |       41680      0.20%      0.20% |       25762      0.12%      0.32% |       25907      0.12%      0.44% |    20829677     99.07%     99.51% |       25197      0.12%     99.63% |       25195      0.12%     99.75% |       25902      0.12%     99.88% |       25820      0.12%    100.00% (Unspecified)
system.caches.L1Cache_Controller.Store::total     21025140                       (Unspecified)
system.caches.L1Cache_Controller.Inv     |        9281     48.74%     48.74% |        1311      6.89%     55.63% |        1444      7.58%     63.21% |        1131      5.94%     69.15% |        1440      7.56%     76.72% |        1433      7.53%     84.24% |        1489      7.82%     92.06% |        1511      7.94%    100.00% (Unspecified)
system.caches.L1Cache_Controller.Inv::total        19040                       (Unspecified)
system.caches.L1Cache_Controller.L1_Replacement |        2953      0.17%      0.17% |        1788      0.10%      0.27% |        1758      0.10%      0.37% |     1763573     99.24%     99.61% |        1725      0.10%     99.70% |        1718      0.10%     99.80% |        1771      0.10%     99.90% |        1764      0.10%    100.00% (Unspecified)
system.caches.L1Cache_Controller.L1_Replacement::total      1777050                       (Unspecified)
system.caches.L1Cache_Controller.Fwd_GETX |           1     33.33%     33.33% |           0      0.00%     33.33% |           2     66.67%    100.00% |           0      0.00%    100.00% |           0      0.00%    100.00% |           0      0.00%    100.00% |           0      0.00%    100.00% |           0      0.00%    100.00% (Unspecified)
system.caches.L1Cache_Controller.Fwd_GETX::total            3                       (Unspecified)
system.caches.L1Cache_Controller.Fwd_GETS |        7953     94.35%     94.35% |          65      0.77%     95.12% |          60      0.71%     95.84% |          81      0.96%     96.80% |          59      0.70%     97.50% |          81      0.96%     98.46% |          68      0.81%     99.26% |          62      0.74%    100.00% (Unspecified)
system.caches.L1Cache_Controller.Fwd_GETS::total         8429                       (Unspecified)
system.caches.L1Cache_Controller.Data    |           3     13.64%     13.64% |           0      0.00%     13.64% |           0      0.00%     13.64% |          19     86.36%    100.00% |           0      0.00%    100.00% |           0      0.00%    100.00% |           0      0.00%    100.00% |           0      0.00%    100.00% (Unspecified)
system.caches.L1Cache_Controller.Data::total           22                       (Unspecified)
system.caches.L1Cache_Controller.Data_Exclusive |         299      0.02%      0.02% |         131      0.01%      0.02% |         212      0.01%      0.04% |     1744541     99.91%     99.95% |         209      0.01%     99.96% |         216      0.01%     99.97% |         222      0.01%     99.99% |         228      0.01%    100.00% (Unspecified)
system.caches.L1Cache_Controller.Data_Exclusive::total      1746058                       (Unspecified)
system.caches.L1Cache_Controller.DataS_fromL1 |         127      1.51%      1.51% |         380      4.51%      6.01% |          86      1.02%      7.04% |        7578     89.90%     96.94% |          78      0.93%     97.86% |          89      1.06%     98.92% |          65      0.77%     99.69% |          26      0.31%    100.00% (Unspecified)
system.caches.L1Cache_Controller.DataS_fromL1::total         8429                       (Unspecified)
system.caches.L1Cache_Controller.Data_all_Acks |        3959     11.94%     11.94% |        2582      7.79%     19.73% |        2920      8.81%     28.54% |       12085     36.45%     64.99% |        2769      8.35%     73.34% |        2831      8.54%     81.88% |        2978      8.98%     90.86% |        3029      9.14%    100.00% (Unspecified)
system.caches.L1Cache_Controller.Data_all_Acks::total        33153                       (Unspecified)
system.caches.L1Cache_Controller.Ack     |        2136     20.21%     20.21% |         142      1.34%     21.56% |         146      1.38%     22.94% |        7625     72.15%     95.09% |         132      1.25%     96.34% |         121      1.14%     97.48% |         134      1.27%     98.75% |         132      1.25%    100.00% (Unspecified)
system.caches.L1Cache_Controller.Ack::total        10568                       (Unspecified)
system.caches.L1Cache_Controller.Ack_all |         334      4.05%      4.05% |          56      0.68%      4.73% |          49      0.59%      5.32% |        7593     92.06%     97.38% |          50      0.61%     97.99% |          48      0.58%     98.57% |          61      0.74%     99.31% |          57      0.69%    100.00% (Unspecified)
system.caches.L1Cache_Controller.Ack_all::total         8248                       (Unspecified)
system.caches.L1Cache_Controller.WB_Ack  |         215      0.01%      0.01% |           3      0.00%      0.01% |           0      0.00%      0.01% |     1754425     99.99%    100.00% |           0      0.00%    100.00% |           0      0.00%    100.00% |           0      0.00%    100.00% |           1      0.00%    100.00% (Unspecified)
system.caches.L1Cache_Controller.WB_Ack::total      1754644                       (Unspecified)
system.caches.L1Cache_Controller.NP.Load |         179      0.01%      0.01% |          93      0.01%      0.02% |          59      0.00%      0.02% |     1758858     99.97%     99.99% |          61      0.00%     99.99% |          52      0.00%     99.99% |          65      0.00%    100.00% |          67      0.00%    100.00% (Unspecified)
system.caches.L1Cache_Controller.NP.Load::total      1759434                       (Unspecified)
system.caches.L1Cache_Controller.NP.Ifetch |        2985     18.59%     18.59% |        1812     11.28%     29.87% |        1811     11.28%     41.15% |        2268     14.12%     55.27% |        1775     11.05%     66.32% |        1773     11.04%     77.36% |        1824     11.36%     88.72% |        1812     11.28%    100.00% (Unspecified)
system.caches.L1Cache_Controller.NP.Ifetch::total        16060                       (Unspecified)
system.caches.L1Cache_Controller.NP.Store |          50      1.91%      1.91% |           0      0.00%      1.91% |           0      0.00%      1.91% |        2564     98.05%     99.96% |           0      0.00%     99.96% |           1      0.04%    100.00% |           0      0.00%    100.00% |           0      0.00%    100.00% (Unspecified)
system.caches.L1Cache_Controller.NP.Store::total         2615                       (Unspecified)
system.caches.L1Cache_Controller.NP.Inv  |          61     11.15%     11.15% |          15      2.74%     13.89% |          10      1.83%     15.72% |         421     76.97%     92.69% |           9      1.65%     94.33% |          12      2.19%     96.53% |           9      1.65%     98.17% |          10      1.83%    100.00% (Unspecified)
system.caches.L1Cache_Controller.NP.Inv::total          547                       (Unspecified)
system.caches.L1Cache_Controller.I.Load  |         393      8.78%      8.78% |         600     13.41%     22.19% |         700     15.64%     37.83% |          35      0.78%     38.61% |         650     14.53%     53.14% |         659     14.73%     67.87% |         714     15.96%     83.82% |         724     16.18%    100.00% (Unspecified)
system.caches.L1Cache_Controller.I.Load::total         4475                       (Unspecified)
system.caches.L1Cache_Controller.I.Ifetch |         605     14.80%     14.80% |         506     12.38%     27.18% |         505     12.35%     39.53% |         498     12.18%     51.71% |         444     10.86%     62.57% |         518     12.67%     75.24% |         506     12.38%     87.62% |         506     12.38%    100.00% (Unspecified)
system.caches.L1Cache_Controller.I.Ifetch::total         4088                       (Unspecified)
system.caches.L1Cache_Controller.I.Store |         176     17.78%     17.78% |          82      8.28%     26.06% |         143     14.44%     40.51% |           0      0.00%     40.51% |         126     12.73%     53.23% |         133     13.43%     66.67% |         156     15.76%     82.42% |         174     17.58%    100.00% (Unspecified)
system.caches.L1Cache_Controller.I.Store::total          990                       (Unspecified)
system.caches.L1Cache_Controller.I.L1_Replacement |          13     10.16%     10.16% |          12      9.38%     19.53% |           1      0.78%     20.31% |          97     75.78%     96.09% |           1      0.78%     96.88% |           1      0.78%     97.66% |           1      0.78%     98.44% |           2      1.56%    100.00% (Unspecified)
system.caches.L1Cache_Controller.I.L1_Replacement::total          128                       (Unspecified)
system.caches.L1Cache_Controller.S.Load  |        7254      4.59%      4.59% |        8198      5.19%      9.79% |        8155      5.16%     14.95% |      102548     64.95%     79.90% |        7742      4.90%     84.80% |        7638      4.84%     89.64% |        8250      5.22%     94.86% |        8112      5.14%    100.00% (Unspecified)
system.caches.L1Cache_Controller.S.Load::total       157897                       (Unspecified)
system.caches.L1Cache_Controller.S.Ifetch |       31830      0.04%      0.04% |       25487      0.04%      0.08% |       25790      0.04%      0.12% |    71123557     99.74%     99.86% |       25244      0.04%     99.89% |       25160      0.04%     99.93% |       25830      0.04%     99.96% |       25689      0.04%    100.00% (Unspecified)
system.caches.L1Cache_Controller.S.Ifetch::total     71308587                       (Unspecified)
system.caches.L1Cache_Controller.S.Store |         331      4.02%      4.02% |          56      0.68%      4.70% |          49      0.60%      5.30% |        7574     92.07%     97.37% |          50      0.61%     97.98% |          48      0.58%     98.57% |          61      0.74%     99.31% |          57      0.69%    100.00% (Unspecified)
system.caches.L1Cache_Controller.S.Store::total         8226                       (Unspecified)
system.caches.L1Cache_Controller.S.Inv   |        8479     54.09%     54.09% |        1094      6.98%     61.06% |        1095      6.98%     68.05% |         605      3.86%     71.91% |        1089      6.95%     78.85% |        1102      7.03%     85.88% |        1107      7.06%     92.95% |        1106      7.05%    100.00% (Unspecified)
system.caches.L1Cache_Controller.S.Inv::total        15677                       (Unspecified)
system.caches.L1Cache_Controller.S.L1_Replacement |        2725     12.23%     12.23% |        1773      7.96%     20.19% |        1757      7.89%     28.08% |        9051     40.63%     68.70% |        1724      7.74%     76.44% |        1717      7.71%     84.15% |        1770      7.95%     92.10% |        1761      7.90%    100.00% (Unspecified)
system.caches.L1Cache_Controller.S.L1_Replacement::total        22278                       (Unspecified)
system.caches.L1Cache_Controller.E.Load  |        7522      0.07%      0.07% |        6489      0.06%      0.13% |        6880      0.06%      0.20% |    10564010     99.55%     99.75% |        6681      0.06%     99.81% |        6839      0.06%     99.87% |        6861      0.06%     99.94% |        6585      0.06%    100.00% (Unspecified)
system.caches.L1Cache_Controller.E.Load::total     10611867                       (Unspecified)
system.caches.L1Cache_Controller.E.Store |          65      0.00%      0.00% |          37      0.00%      0.01% |          36      0.00%      0.01% |     1429855     99.98%     99.99% |          39      0.00%     99.99% |          43      0.00%     99.99% |          44      0.00%    100.00% |          46      0.00%    100.00% (Unspecified)
system.caches.L1Cache_Controller.E.Store::total      1430165                       (Unspecified)
system.caches.L1Cache_Controller.E.Inv   |         152     14.64%     14.64% |          82      7.90%     22.54% |         160     15.41%     37.96% |           0      0.00%     37.96% |         162     15.61%     53.56% |         138     13.29%     66.86% |         170     16.38%     83.24% |         174     16.76%    100.00% (Unspecified)
system.caches.L1Cache_Controller.E.Inv::total         1038                       (Unspecified)
system.caches.L1Cache_Controller.E.L1_Replacement |           0      0.00%      0.00% |           3      0.00%      0.00% |           0      0.00%      0.00% |      314778    100.00%    100.00% |           0      0.00%    100.00% |           0      0.00%    100.00% |           0      0.00%    100.00% |           1      0.00%    100.00% (Unspecified)
system.caches.L1Cache_Controller.E.L1_Replacement::total       314782                       (Unspecified)
system.caches.L1Cache_Controller.E.Fwd_GETX |           1     33.33%     33.33% |           0      0.00%     33.33% |           2     66.67%    100.00% |           0      0.00%    100.00% |           0      0.00%    100.00% |           0      0.00%    100.00% |           0      0.00%    100.00% |           0      0.00%    100.00% (Unspecified)
system.caches.L1Cache_Controller.E.Fwd_GETX::total            3                       (Unspecified)
system.caches.L1Cache_Controller.E.Fwd_GETS |          53     36.81%     36.81% |           7      4.86%     41.67% |          14      9.72%     51.39% |          12      8.33%     59.72% |          11      7.64%     67.36% |          34     23.61%     90.97% |           7      4.86%     95.83% |           6      4.17%    100.00% (Unspecified)
system.caches.L1Cache_Controller.E.Fwd_GETS::total          144                       (Unspecified)
system.caches.L1Cache_Controller.M.Load  |       32295      0.04%      0.04% |       16217      0.02%      0.06% |       16553      0.02%      0.08% |    82090487     99.84%     99.92% |       16222      0.02%     99.94% |       16208      0.02%     99.96% |       16408      0.02%     99.98% |       16360      0.02%    100.00% (Unspecified)
system.caches.L1Cache_Controller.M.Load::total     82220750                       (Unspecified)
system.caches.L1Cache_Controller.M.Store |       41058      0.21%      0.21% |       25587      0.13%      0.34% |       25679      0.13%      0.47% |    19389684     99.01%     99.48% |       24982      0.13%     99.61% |       24970      0.13%     99.74% |       25641      0.13%     99.87% |       25543      0.13%    100.00% (Unspecified)
system.caches.L1Cache_Controller.M.Store::total     19583144                       (Unspecified)
system.caches.L1Cache_Controller.M.Inv   |         589     33.13%     33.13% |         120      6.75%     39.88% |         179     10.07%     49.94% |         105      5.91%     55.85% |         180     10.12%     65.97% |         181     10.18%     76.15% |         203     11.42%     87.57% |         221     12.43%    100.00% (Unspecified)
system.caches.L1Cache_Controller.M.Inv::total         1778                       (Unspecified)
system.caches.L1Cache_Controller.M.L1_Replacement |         215      0.01%      0.01% |           0      0.00%      0.01% |           0      0.00%      0.01% |     1439647     99.99%    100.00% |           0      0.00%    100.00% |           0      0.00%    100.00% |           0      0.00%    100.00% |           0      0.00%    100.00% (Unspecified)
system.caches.L1Cache_Controller.M.L1_Replacement::total      1439862                       (Unspecified)
system.caches.L1Cache_Controller.M.Fwd_GETS |        7900     95.35%     95.35% |          58      0.70%     96.05% |          46      0.56%     96.61% |          69      0.83%     97.44% |          48      0.58%     98.02% |          47      0.57%     98.59% |          61      0.74%     99.32% |          56      0.68%    100.00% (Unspecified)
system.caches.L1Cache_Controller.M.Fwd_GETS::total         8285                       (Unspecified)
system.caches.L1Cache_Controller.IS.Data_Exclusive |         299      0.02%      0.02% |         131      0.01%      0.02% |         212      0.01%      0.04% |     1744541     99.91%     99.95% |         209      0.01%     99.96% |         216      0.01%     99.97% |         222      0.01%     99.99% |         228      0.01%    100.00% (Unspecified)
system.caches.L1Cache_Controller.IS.Data_Exclusive::total      1746058                       (Unspecified)
system.caches.L1Cache_Controller.IS.DataS_fromL1 |         127      1.51%      1.51% |         380      4.51%      6.01% |          86      1.02%      7.04% |        7578     89.90%     96.94% |          78      0.93%     97.86% |          89      1.06%     98.92% |          65      0.77%     99.69% |          26      0.31%    100.00% (Unspecified)
system.caches.L1Cache_Controller.IS.DataS_fromL1::total         8429                       (Unspecified)
system.caches.L1Cache_Controller.IS.Data_all_Acks |        3736     12.63%     12.63% |        2500      8.45%     21.09% |        2777      9.39%     30.48% |        9540     32.26%     62.74% |        2643      8.94%     71.68% |        2697      9.12%     80.80% |        2822      9.54%     90.34% |        2855      9.66%    100.00% (Unspecified)
system.caches.L1Cache_Controller.IS.Data_all_Acks::total        29570                       (Unspecified)
system.caches.L1Cache_Controller.IM.Data |           3     13.64%     13.64% |           0      0.00%     13.64% |           0      0.00%     13.64% |          19     86.36%    100.00% |           0      0.00%    100.00% |           0      0.00%    100.00% |           0      0.00%    100.00% |           0      0.00%    100.00% (Unspecified)
system.caches.L1Cache_Controller.IM.Data::total           22                       (Unspecified)
system.caches.L1Cache_Controller.IM.Data_all_Acks |         223      6.22%      6.22% |          82      2.29%      8.51% |         143      3.99%     12.50% |        2545     71.03%     83.53% |         126      3.52%     87.05% |         134      3.74%     90.79% |         156      4.35%     95.14% |         174      4.86%    100.00% (Unspecified)
system.caches.L1Cache_Controller.IM.Data_all_Acks::total         3583                       (Unspecified)
system.caches.L1Cache_Controller.SM.Ack  |        2136     20.21%     20.21% |         142      1.34%     21.56% |         146      1.38%     22.94% |        7625     72.15%     95.09% |         132      1.25%     96.34% |         121      1.14%     97.48% |         134      1.27%     98.75% |         132      1.25%    100.00% (Unspecified)
system.caches.L1Cache_Controller.SM.Ack::total        10568                       (Unspecified)
system.caches.L1Cache_Controller.SM.Ack_all |         334      4.05%      4.05% |          56      0.68%      4.73% |          49      0.59%      5.32% |        7593     92.06%     97.38% |          50      0.61%     97.99% |          48      0.58%     98.57% |          61      0.74%     99.31% |          57      0.69%    100.00% (Unspecified)
system.caches.L1Cache_Controller.SM.Ack_all::total         8248                       (Unspecified)
system.caches.L1Cache_Controller.M_I.Load |           0      0.00%      0.00% |           0      0.00%      0.00% |           0      0.00%      0.00% |           7    100.00%    100.00% |           0      0.00%    100.00% |           0      0.00%    100.00% |           0      0.00%    100.00% |           0      0.00%    100.00% (Unspecified)
system.caches.L1Cache_Controller.M_I.Load::total            7                       (Unspecified)
system.caches.L1Cache_Controller.M_I.WB_Ack |         215      0.01%      0.01% |           3      0.00%      0.01% |           0      0.00%      0.01% |     1754425     99.99%    100.00% |           0      0.00%    100.00% |           0      0.00%    100.00% |           0      0.00%    100.00% |           1      0.00%    100.00% (Unspecified)
system.caches.L1Cache_Controller.M_I.WB_Ack::total      1754644                       (Unspecified)
system.caches.Directory_Controller.Fetch |        1008      0.28%      0.28% |      357002     99.72%    100.00% (Unspecified)
system.caches.Directory_Controller.Fetch::total       358010                       (Unspecified)
system.caches.Directory_Controller.Data  |          81      0.02%      0.02% |      341263     99.98%    100.00% (Unspecified)
system.caches.Directory_Controller.Data::total       341344                       (Unspecified)
system.caches.Directory_Controller.Memory_Data |        1008      0.28%      0.28% |      357002     99.72%    100.00% (Unspecified)
system.caches.Directory_Controller.Memory_Data::total       358010                       (Unspecified)
system.caches.Directory_Controller.Memory_Ack |          81      0.02%      0.02% |      341263     99.98%    100.00% (Unspecified)
system.caches.Directory_Controller.Memory_Ack::total       341344                       (Unspecified)
system.caches.Directory_Controller.CleanReplacement |         882      5.29%      5.29% |       15784     94.71%    100.00% (Unspecified)
system.caches.Directory_Controller.CleanReplacement::total        16666                       (Unspecified)
system.caches.Directory_Controller.I.Fetch |        1008      0.28%      0.28% |      357002     99.72%    100.00% (Unspecified)
system.caches.Directory_Controller.I.Fetch::total       358010                       (Unspecified)
system.caches.Directory_Controller.M.Data |          81      0.02%      0.02% |      341263     99.98%    100.00% (Unspecified)
system.caches.Directory_Controller.M.Data::total       341344                       (Unspecified)
system.caches.Directory_Controller.M.CleanReplacement |         882      5.29%      5.29% |       15784     94.71%    100.00% (Unspecified)
system.caches.Directory_Controller.M.CleanReplacement::total        16666                       (Unspecified)
system.caches.Directory_Controller.IM.Memory_Data |        1008      0.28%      0.28% |      357002     99.72%    100.00% (Unspecified)
system.caches.Directory_Controller.IM.Memory_Data::total       358010                       (Unspecified)
system.caches.Directory_Controller.MI.Memory_Ack |          81      0.02%      0.02% |      341263     99.98%    100.00% (Unspecified)
system.caches.Directory_Controller.MI.Memory_Ack::total       341344                       (Unspecified)
system.caches.L2Cache_Controller.L1_GET_INSTR |        2136     10.60%     10.60% |        4369     21.68%     32.29% |        2881     14.30%     46.59% |         776      3.85%     50.44% |        2497     12.39%     62.83% |        3459     17.17%     80.00% |        2702     13.41%     93.41% |        1328      6.59%    100.00% (Unspecified)
system.caches.L2Cache_Controller.L1_GET_INSTR::total        20148                       (Unspecified)
system.caches.L2Cache_Controller.L1_GETS |      221862     12.58%     12.58% |      220669     12.51%     25.09% |      220169     12.48%     37.57% |      219936     12.47%     50.04% |      220276     12.49%     62.53% |      219952     12.47%     75.00% |      220366     12.49%     87.49% |      220685     12.51%    100.00% (Unspecified)
system.caches.L2Cache_Controller.L1_GETS::total      1763915                       (Unspecified)
system.caches.L2Cache_Controller.L1_GETX |         580     16.09%     16.09% |         460     12.76%     28.85% |         237      6.57%     35.42% |         361     10.01%     45.44% |         404     11.21%     56.64% |         715     19.83%     76.48% |         384     10.65%     87.13% |         464     12.87%    100.00% (Unspecified)
system.caches.L2Cache_Controller.L1_GETX::total         3605                       (Unspecified)
system.caches.L2Cache_Controller.L1_UPGRADE |        1128     13.71%     13.71% |        1009     12.26%     25.98% |         928     11.28%     37.26% |         953     11.58%     48.84% |        1079     13.12%     61.95% |         946     11.50%     73.45% |        1084     13.18%     86.63% |        1100     13.37%    100.00% (Unspecified)
system.caches.L2Cache_Controller.L1_UPGRADE::total         8227                       (Unspecified)
system.caches.L2Cache_Controller.L1_PUTX |      219502     12.51%     12.51% |      219371     12.50%     25.01% |      219094     12.49%     37.50% |      219218     12.49%     49.99% |      219165     12.49%     62.48% |      219549     12.51%     75.00% |      219109     12.49%     87.48% |      219636     12.52%    100.00% (Unspecified)
system.caches.L2Cache_Controller.L1_PUTX::total      1754644                       (Unspecified)
system.caches.L2Cache_Controller.L2_Replacement |       42555     12.53%     12.53% |       42462     12.50%     25.03% |       42421     12.49%     37.52% |       42434     12.49%     50.02% |       42420     12.49%     62.51% |       42451     12.50%     75.00% |       42379     12.48%     87.48% |       42513     12.52%    100.00% (Unspecified)
system.caches.L2Cache_Controller.L2_Replacement::total       339635                       (Unspecified)
system.caches.L2Cache_Controller.L2_Replacement_clean |        2412     13.13%     13.13% |        2355     12.82%     25.94% |        2188     11.91%     37.85% |        2327     12.66%     50.51% |        2225     12.11%     62.62% |        2388     13.00%     75.62% |        2197     11.96%     87.58% |        2283     12.42%    100.00% (Unspecified)
system.caches.L2Cache_Controller.L2_Replacement_clean::total        18375                       (Unspecified)
system.caches.L2Cache_Controller.Mem_Data |       44967     12.56%     12.56% |       44817     12.52%     25.08% |       44609     12.46%     37.54% |       44761     12.50%     50.04% |       44645     12.47%     62.51% |       44839     12.52%     75.04% |       44576     12.45%     87.49% |       44796     12.51%    100.00% (Unspecified)
system.caches.L2Cache_Controller.Mem_Data::total       358010                       (Unspecified)
system.caches.L2Cache_Controller.Mem_Ack |       44967     12.56%     12.56% |       44817     12.52%     25.08% |       44609     12.46%     37.54% |       44761     12.50%     50.04% |       44645     12.47%     62.51% |       44839     12.52%     75.04% |       44576     12.45%     87.49% |       44796     12.51%    100.00% (Unspecified)
system.caches.L2Cache_Controller.Mem_Ack::total       358010                       (Unspecified)
system.caches.L2Cache_Controller.WB_Data |        1406     13.97%     13.97% |        1246     12.38%     26.35% |        1124     11.17%     37.52% |        1222     12.14%     49.67% |        1245     12.37%     62.04% |        1267     12.59%     74.63% |        1203     11.95%     86.58% |        1350     13.42%    100.00% (Unspecified)
system.caches.L2Cache_Controller.WB_Data::total        10063                       (Unspecified)
system.caches.L2Cache_Controller.WB_Data_clean |          33     22.92%     22.92% |           7      4.86%     27.78% |           7      4.86%     32.64% |           6      4.17%     36.81% |          26     18.06%     54.86% |          14      9.72%     64.58% |          36     25.00%     89.58% |          15     10.42%    100.00% (Unspecified)
system.caches.L2Cache_Controller.WB_Data_clean::total          144                       (Unspecified)
system.caches.L2Cache_Controller.Ack     |         707     15.38%     15.38% |         595     12.95%     28.33% |         397      8.64%     36.97% |         500     10.88%     47.85% |         599     13.03%     60.88% |         611     13.29%     74.17% |         633     13.77%     87.95% |         554     12.05%    100.00% (Unspecified)
system.caches.L2Cache_Controller.Ack::total         4596                       (Unspecified)
system.caches.L2Cache_Controller.Ack_all |         327     15.75%     15.75% |         284     13.68%     29.43% |         197      9.49%     38.92% |         267     12.86%     51.78% |         260     12.52%     64.31% |         240     11.56%     75.87% |         278     13.39%     89.26% |         223     10.74%    100.00% (Unspecified)
system.caches.L2Cache_Controller.Ack_all::total         2076                       (Unspecified)
system.caches.L2Cache_Controller.Unblock |        1160     13.76%     13.76% |        1022     12.12%     25.89% |         943     11.19%     37.07% |         966     11.46%     48.53% |        1130     13.41%     61.94% |         966     11.46%     73.40% |        1129     13.39%     86.80% |        1113     13.20%    100.00% (Unspecified)
system.caches.L2Cache_Controller.Unblock::total         8429                       (Unspecified)
system.caches.L2Cache_Controller.Exclusive_Unblock |      220121     12.52%     12.52% |      219772     12.50%     25.02% |      219328     12.48%     37.50% |      219595     12.49%     49.99% |      219567     12.49%     62.48% |      219937     12.51%     74.99% |      219475     12.49%     87.48% |      220093     12.52%    100.00% (Unspecified)
system.caches.L2Cache_Controller.Exclusive_Unblock::total      1757888                       (Unspecified)
system.caches.L2Cache_Controller.NP.L1_GET_INSTR |         137     15.12%     15.12% |         128     14.13%     29.25% |          81      8.94%     38.19% |         104     11.48%     49.67% |         107     11.81%     61.48% |         116     12.80%     74.28% |         104     11.48%     85.76% |         129     14.24%    100.00% (Unspecified)
system.caches.L2Cache_Controller.NP.L1_GET_INSTR::total          906                       (Unspecified)
system.caches.L2Cache_Controller.NP.L1_GETS |       44626     12.53%     12.53% |       44535     12.51%     25.04% |       44463     12.49%     37.53% |       44538     12.51%     50.04% |       44462     12.49%     62.53% |       44511     12.50%     75.03% |       44400     12.47%     87.50% |       44515     12.50%    100.00% (Unspecified)
system.caches.L2Cache_Controller.NP.L1_GETS::total       356050                       (Unspecified)
system.caches.L2Cache_Controller.NP.L1_GETX |         204     19.35%     19.35% |         154     14.61%     33.97% |          65      6.17%     40.13% |         119     11.29%     51.42% |          76      7.21%     58.63% |         212     20.11%     78.75% |          72      6.83%     85.58% |         152     14.42%    100.00% (Unspecified)
system.caches.L2Cache_Controller.NP.L1_GETX::total         1054                       (Unspecified)
system.caches.L2Cache_Controller.SS.L1_GET_INSTR |        1974     10.33%     10.33% |        4214     22.06%     32.39% |        2788     14.59%     46.98% |         658      3.44%     50.42% |        2378     12.45%     62.87% |        3325     17.40%     80.27% |        2585     13.53%     93.80% |        1184      6.20%    100.00% (Unspecified)
system.caches.L2Cache_Controller.SS.L1_GET_INSTR::total        19106                       (Unspecified)
system.caches.L2Cache_Controller.SS.L1_GETS |        2281     24.28%     24.28% |        1342     14.28%     38.56% |        1061     11.29%     49.86% |         683      7.27%     57.13% |        1055     11.23%     68.36% |         705      7.50%     75.86% |        1226     13.05%     88.91% |        1042     11.09%    100.00% (Unspecified)
system.caches.L2Cache_Controller.SS.L1_GETS::total         9395                       (Unspecified)
system.caches.L2Cache_Controller.SS.L1_GETX |           2      9.09%      9.09% |           0      0.00%      9.09% |           0      0.00%      9.09% |           0      0.00%      9.09% |          19     86.36%     95.45% |           0      0.00%     95.45% |           1      4.55%    100.00% |           0      0.00%    100.00% (Unspecified)
system.caches.L2Cache_Controller.SS.L1_GETX::total           22                       (Unspecified)
system.caches.L2Cache_Controller.SS.L1_UPGRADE |        1128     13.71%     13.71% |        1009     12.27%     25.98% |         928     11.28%     37.26% |         953     11.59%     48.85% |        1078     13.10%     61.95% |         946     11.50%     73.45% |        1084     13.18%     86.63% |        1100     13.37%    100.00% (Unspecified)
system.caches.L2Cache_Controller.SS.L1_UPGRADE::total         8226                       (Unspecified)
system.caches.L2Cache_Controller.SS.L2_Replacement |          14     17.72%     17.72% |           6      7.59%     25.32% |          11     13.92%     39.24% |           7      8.86%     48.10% |           9     11.39%     59.49% |           6      7.59%     67.09% |          22     27.85%     94.94% |           4      5.06%    100.00% (Unspecified)
system.caches.L2Cache_Controller.SS.L2_Replacement::total           79                       (Unspecified)
system.caches.L2Cache_Controller.SS.L2_Replacement_clean |         146     15.22%     15.22% |         129     13.45%     28.68% |          83      8.65%     37.33% |         108     11.26%     48.59% |         118     12.30%     60.90% |         125     13.03%     73.93% |         122     12.72%     86.65% |         128     13.35%    100.00% (Unspecified)
system.caches.L2Cache_Controller.SS.L2_Replacement_clean::total          959                       (Unspecified)
system.caches.L2Cache_Controller.M.L1_GET_INSTR |           4     21.05%     21.05% |           4     21.05%     42.11% |           3     15.79%     57.89% |           1      5.26%     63.16% |           0      0.00%     63.16% |           1      5.26%     68.42% |           2     10.53%     78.95% |           4     21.05%    100.00% (Unspecified)
system.caches.L2Cache_Controller.M.L1_GET_INSTR::total           19                       (Unspecified)
system.caches.L2Cache_Controller.M.L1_GETS |      173790     12.50%     12.50% |      173769     12.50%     25.00% |      173701     12.50%     37.50% |      173746     12.50%     50.00% |      173625     12.49%     62.49% |      173767     12.50%     74.99% |      173609     12.49%     87.48% |      174014     12.52%    100.00% (Unspecified)
system.caches.L2Cache_Controller.M.L1_GETS::total      1390021                       (Unspecified)
system.caches.L2Cache_Controller.M.L1_GETX |         374     14.81%     14.81% |         306     12.11%     26.92% |         172      6.81%     33.73% |         242      9.58%     43.31% |         306     12.11%     55.42% |         503     19.91%     75.34% |         311     12.31%     87.65% |         312     12.35%    100.00% (Unspecified)
system.caches.L2Cache_Controller.M.L1_GETX::total         2526                       (Unspecified)
system.caches.L2Cache_Controller.M.L2_Replacement |       42530     12.53%     12.53% |       42450     12.50%     25.03% |       42403     12.49%     37.52% |       42419     12.50%     50.02% |       42403     12.49%     62.51% |       42435     12.50%     75.01% |       42353     12.48%     87.48% |       42494     12.52%    100.00% (Unspecified)
system.caches.L2Cache_Controller.M.L2_Replacement::total       339487                       (Unspecified)
system.caches.L2Cache_Controller.M.L2_Replacement_clean |        1831     12.48%     12.48% |        1852     12.63%     25.11% |        1821     12.41%     37.52% |        1813     12.36%     49.88% |        1841     12.55%     62.43% |        1849     12.60%     75.04% |        1835     12.51%     87.55% |        1827     12.45%    100.00% (Unspecified)
system.caches.L2Cache_Controller.M.L2_Replacement_clean::total        14669                       (Unspecified)
system.caches.L2Cache_Controller.MT.L1_GETS |        1160     13.76%     13.76% |        1022     12.12%     25.89% |         943     11.19%     37.07% |         966     11.46%     48.53% |        1130     13.41%     61.94% |         966     11.46%     73.40% |        1129     13.39%     86.80% |        1113     13.20%    100.00% (Unspecified)
system.caches.L2Cache_Controller.MT.L1_GETS::total         8429                       (Unspecified)
system.caches.L2Cache_Controller.MT.L1_GETX |           0      0.00%      0.00% |           0      0.00%      0.00% |           0      0.00%      0.00% |           0      0.00%      0.00% |           3    100.00%    100.00% |           0      0.00%    100.00% |           0      0.00%    100.00% |           0      0.00%    100.00% (Unspecified)
system.caches.L2Cache_Controller.MT.L1_GETX::total            3                       (Unspecified)
system.caches.L2Cache_Controller.MT.L1_PUTX |      219502     12.51%     12.51% |      219371     12.50%     25.01% |      219094     12.49%     37.50% |      219218     12.49%     49.99% |      219165     12.49%     62.48% |      219549     12.51%     75.00% |      219109     12.49%     87.48% |      219636     12.52%    100.00% (Unspecified)
system.caches.L2Cache_Controller.MT.L1_PUTX::total      1754644                       (Unspecified)
system.caches.L2Cache_Controller.MT.L2_Replacement |          11     15.94%     15.94% |           6      8.70%     24.64% |           7     10.14%     34.78% |           8     11.59%     46.38% |           8     11.59%     57.97% |          10     14.49%     72.46% |           4      5.80%     78.26% |          15     21.74%    100.00% (Unspecified)
system.caches.L2Cache_Controller.MT.L2_Replacement::total           69                       (Unspecified)
system.caches.L2Cache_Controller.MT.L2_Replacement_clean |         435     15.84%     15.84% |         374     13.61%     29.45% |         284     10.34%     39.79% |         406     14.78%     54.57% |         266      9.68%     64.25% |         414     15.07%     79.32% |         240      8.74%     88.06% |         328     11.94%    100.00% (Unspecified)
system.caches.L2Cache_Controller.MT.L2_Replacement_clean::total         2747                       (Unspecified)
system.caches.L2Cache_Controller.M_I.L1_GETS |           1     33.33%     33.33% |           0      0.00%     33.33% |           0      0.00%     33.33% |           0      0.00%     33.33% |           0      0.00%     33.33% |           1     33.33%     66.67% |           1     33.33%    100.00% |           0      0.00%    100.00% (Unspecified)
system.caches.L2Cache_Controller.M_I.L1_GETS::total            3                       (Unspecified)
system.caches.L2Cache_Controller.M_I.Mem_Ack |       44967     12.56%     12.56% |       44817     12.52%     25.08% |       44609     12.46%     37.54% |       44761     12.50%     50.04% |       44645     12.47%     62.51% |       44839     12.52%     75.04% |       44576     12.45%     87.49% |       44796     12.51%    100.00% (Unspecified)
system.caches.L2Cache_Controller.M_I.Mem_Ack::total       358010                       (Unspecified)
system.caches.L2Cache_Controller.MT_I.WB_Data |          11     15.94%     15.94% |           6      8.70%     24.64% |           7     10.14%     34.78% |           8     11.59%     46.38% |           8     11.59%     57.97% |          10     14.49%     72.46% |           4      5.80%     78.26% |          15     21.74%    100.00% (Unspecified)
system.caches.L2Cache_Controller.MT_I.WB_Data::total           69                       (Unspecified)
system.caches.L2Cache_Controller.MCT_I.WB_Data |         268     15.68%     15.68% |         225     13.17%     28.85% |         181     10.59%     39.44% |         254     14.86%     54.30% |         133      7.78%     62.08% |         305     17.85%     79.93% |         106      6.20%     86.13% |         237     13.87%    100.00% (Unspecified)
system.caches.L2Cache_Controller.MCT_I.WB_Data::total         1709                       (Unspecified)
system.caches.L2Cache_Controller.MCT_I.Ack_all |         167     16.09%     16.09% |         149     14.35%     30.44% |         103      9.92%     40.37% |         152     14.64%     55.01% |         133     12.81%     67.82% |         109     10.50%     78.32% |         134     12.91%     91.23% |          91      8.77%    100.00% (Unspecified)
system.caches.L2Cache_Controller.MCT_I.Ack_all::total         1038                       (Unspecified)
system.caches.L2Cache_Controller.I_I.Ack |         669     15.04%     15.04% |         589     13.24%     28.28% |         382      8.59%     36.87% |         493     11.08%     47.95% |         579     13.02%     60.97% |         605     13.60%     74.57% |         581     13.06%     87.63% |         550     12.37%    100.00% (Unspecified)
system.caches.L2Cache_Controller.I_I.Ack::total         4448                       (Unspecified)
system.caches.L2Cache_Controller.I_I.Ack_all |         146     15.22%     15.22% |         129     13.45%     28.68% |          83      8.65%     37.33% |         108     11.26%     48.59% |         118     12.30%     60.90% |         125     13.03%     73.93% |         122     12.72%     86.65% |         128     13.35%    100.00% (Unspecified)
system.caches.L2Cache_Controller.I_I.Ack_all::total          959                       (Unspecified)
system.caches.L2Cache_Controller.S_I.Ack |          38     25.68%     25.68% |           6      4.05%     29.73% |          15     10.14%     39.86% |           7      4.73%     44.59% |          20     13.51%     58.11% |           6      4.05%     62.16% |          52     35.14%     97.30% |           4      2.70%    100.00% (Unspecified)
system.caches.L2Cache_Controller.S_I.Ack::total          148                       (Unspecified)
system.caches.L2Cache_Controller.S_I.Ack_all |          14     17.72%     17.72% |           6      7.59%     25.32% |          11     13.92%     39.24% |           7      8.86%     48.10% |           9     11.39%     59.49% |           6      7.59%     67.09% |          22     27.85%     94.94% |           4      5.06%    100.00% (Unspecified)
system.caches.L2Cache_Controller.S_I.Ack_all::total           79                       (Unspecified)
system.caches.L2Cache_Controller.ISS.L1_GETS |           3     23.08%     23.08% |           1      7.69%     30.77% |           1      7.69%     38.46% |           3     23.08%     61.54% |           2     15.38%     76.92% |           2     15.38%     92.31% |           1      7.69%    100.00% |           0      0.00%    100.00% (Unspecified)
system.caches.L2Cache_Controller.ISS.L1_GETS::total           13                       (Unspecified)
system.caches.L2Cache_Controller.ISS.Mem_Data |       44623     12.53%     12.53% |       44534     12.51%     25.04% |       44462     12.49%     37.53% |       44535     12.51%     50.04% |       44460     12.49%     62.53% |       44509     12.50%     75.03% |       44399     12.47%     87.50% |       44515     12.50%    100.00% (Unspecified)
system.caches.L2Cache_Controller.ISS.Mem_Data::total       356037                       (Unspecified)
system.caches.L2Cache_Controller.IS.L1_GET_INSTR |          21     17.95%     17.95% |          23     19.66%     37.61% |           9      7.69%     45.30% |          13     11.11%     56.41% |          12     10.26%     66.67% |          17     14.53%     81.20% |          11      9.40%     90.60% |          11      9.40%    100.00% (Unspecified)
system.caches.L2Cache_Controller.IS.L1_GET_INSTR::total          117                       (Unspecified)
system.caches.L2Cache_Controller.IS.L1_GETS |           1    100.00%    100.00% |           0      0.00%    100.00% |           0      0.00%    100.00% |           0      0.00%    100.00% |           0      0.00%    100.00% |           0      0.00%    100.00% |           0      0.00%    100.00% |           0      0.00%    100.00% (Unspecified)
system.caches.L2Cache_Controller.IS.L1_GETS::total            1                       (Unspecified)
system.caches.L2Cache_Controller.IS.Mem_Data |         140     15.23%     15.23% |         129     14.04%     29.27% |          82      8.92%     38.19% |         107     11.64%     49.84% |         109     11.86%     61.70% |         118     12.84%     74.54% |         105     11.43%     85.96% |         129     14.04%    100.00% (Unspecified)
system.caches.L2Cache_Controller.IS.Mem_Data::total          919                       (Unspecified)
system.caches.L2Cache_Controller.IM.Mem_Data |         204     19.35%     19.35% |         154     14.61%     33.97% |          65      6.17%     40.13% |         119     11.29%     51.42% |          76      7.21%     58.63% |         212     20.11%     78.75% |          72      6.83%     85.58% |         152     14.42%    100.00% (Unspecified)
system.caches.L2Cache_Controller.IM.Mem_Data::total         1054                       (Unspecified)
system.caches.L2Cache_Controller.SS_MB.L1_GETS |           0      0.00%      0.00% |           0      0.00%      0.00% |           0      0.00%      0.00% |           0      0.00%      0.00% |           1    100.00%    100.00% |           0      0.00%    100.00% |           0      0.00%    100.00% |           0      0.00%    100.00% (Unspecified)
system.caches.L2Cache_Controller.SS_MB.L1_GETS::total            1                       (Unspecified)
system.caches.L2Cache_Controller.SS_MB.Exclusive_Unblock |        1130     13.70%     13.70% |        1009     12.23%     25.93% |         928     11.25%     37.18% |         953     11.55%     48.74% |        1097     13.30%     62.04% |         946     11.47%     73.51% |        1085     13.15%     86.66% |        1100     13.34%    100.00% (Unspecified)
system.caches.L2Cache_Controller.SS_MB.Exclusive_Unblock::total         8248                       (Unspecified)
system.caches.L2Cache_Controller.MT_MB.Exclusive_Unblock |      218991     12.52%     12.52% |      218763     12.50%     25.02% |      218400     12.48%     37.50% |      218642     12.50%     50.00% |      218470     12.49%     62.49% |      218991     12.52%     75.00% |      218390     12.48%     87.48% |      218993     12.52%    100.00% (Unspecified)
system.caches.L2Cache_Controller.MT_MB.Exclusive_Unblock::total      1749640                       (Unspecified)
system.caches.L2Cache_Controller.MT_IIB.L1_GETS |           0      0.00%      0.00% |           0      0.00%      0.00% |           0      0.00%      0.00% |           0      0.00%      0.00% |           1     50.00%     50.00% |           0      0.00%     50.00% |           0      0.00%     50.00% |           1     50.00%    100.00% (Unspecified)
system.caches.L2Cache_Controller.MT_IIB.L1_GETS::total            2                       (Unspecified)
system.caches.L2Cache_Controller.MT_IIB.WB_Data |        1127     13.60%     13.60% |        1015     12.25%     25.85% |         936     11.30%     37.15% |         960     11.59%     48.74% |        1104     13.33%     62.06% |         952     11.49%     73.55% |        1093     13.19%     86.75% |        1098     13.25%    100.00% (Unspecified)
system.caches.L2Cache_Controller.MT_IIB.WB_Data::total         8285                       (Unspecified)
system.caches.L2Cache_Controller.MT_IIB.WB_Data_clean |          33     22.92%     22.92% |           7      4.86%     27.78% |           7      4.86%     32.64% |           6      4.17%     36.81% |          26     18.06%     54.86% |          14      9.72%     64.58% |          36     25.00%     89.58% |          15     10.42%    100.00% (Unspecified)
system.caches.L2Cache_Controller.MT_IIB.WB_Data_clean::total          144                       (Unspecified)
system.caches.L2Cache_Controller.MT_SB.L1_UPGRADE |           0      0.00%      0.00% |           0      0.00%      0.00% |           0      0.00%      0.00% |           0      0.00%      0.00% |           1    100.00%    100.00% |           0      0.00%    100.00% |           0      0.00%    100.00% |           0      0.00%    100.00% (Unspecified)
system.caches.L2Cache_Controller.MT_SB.L1_UPGRADE::total            1                       (Unspecified)
system.caches.L2Cache_Controller.MT_SB.Unblock |        1160     13.76%     13.76% |        1022     12.12%     25.89% |         943     11.19%     37.07% |         966     11.46%     48.53% |        1130     13.41%     61.94% |         966     11.46%     73.40% |        1129     13.39%     86.80% |        1113     13.20%    100.00% (Unspecified)
system.caches.L2Cache_Controller.MT_SB.Unblock::total         8429                       (Unspecified)
system.caches.RequestType.LD.latency_hist_seqr::bucket_size          512                       (Unspecified)
system.caches.RequestType.LD.latency_hist_seqr::max_bucket         5119                       (Unspecified)
system.caches.RequestType.LD.latency_hist_seqr::samples     94754423                       (Unspecified)
system.caches.RequestType.LD.latency_hist_seqr::mean     3.795184                       (Unspecified)
system.caches.RequestType.LD.latency_hist_seqr::gmean     1.067927                       (Unspecified)
system.caches.RequestType.LD.latency_hist_seqr::stdev    47.842427                       (Unspecified)
system.caches.RequestType.LD.latency_hist_seqr |    94550162     99.78%     99.78% |      150318      0.16%     99.94% |       43937      0.05%     99.99% |        7137      0.01%    100.00% |        1599      0.00%    100.00% |        1093      0.00%    100.00% |         150      0.00%    100.00% |          23      0.00%    100.00% |           1      0.00%    100.00% |           3      0.00%    100.00% (Unspecified)
system.caches.RequestType.LD.latency_hist_seqr::total     94754423                       (Unspecified)
system.caches.RequestType.LD.hit_latency_hist_seqr::bucket_size            1                       (Unspecified)
system.caches.RequestType.LD.hit_latency_hist_seqr::max_bucket            9                       (Unspecified)
system.caches.RequestType.LD.hit_latency_hist_seqr::samples     92990514                       (Unspecified)
system.caches.RequestType.LD.hit_latency_hist_seqr::mean     1.000060                       (Unspecified)
system.caches.RequestType.LD.hit_latency_hist_seqr::gmean     1.000041                       (Unspecified)
system.caches.RequestType.LD.hit_latency_hist_seqr::stdev     0.007714                       (Unspecified)
system.caches.RequestType.LD.hit_latency_hist_seqr |           0      0.00%      0.00% |    92984980     99.99%     99.99% |        5534      0.01%    100.00% |           0      0.00%    100.00% |           0      0.00%    100.00% |           0      0.00%    100.00% |           0      0.00%    100.00% |           0      0.00%    100.00% |           0      0.00%    100.00% |           0      0.00%    100.00% (Unspecified)
system.caches.RequestType.LD.hit_latency_hist_seqr::total     92990514                       (Unspecified)
system.caches.RequestType.LD.miss_latency_hist_seqr::bucket_size          512                       (Unspecified)
system.caches.RequestType.LD.miss_latency_hist_seqr::max_bucket         5119                       (Unspecified)
system.caches.RequestType.LD.miss_latency_hist_seqr::samples      1763909                       (Unspecified)
system.caches.RequestType.LD.miss_latency_hist_seqr::mean   151.149767                       (Unspecified)
system.caches.RequestType.LD.miss_latency_hist_seqr::gmean    34.060933                       (Unspecified)
system.caches.RequestType.LD.miss_latency_hist_seqr::stdev   317.538665                       (Unspecified)
system.caches.RequestType.LD.miss_latency_hist_seqr |     1559648     88.42%     88.42% |      150318      8.52%     96.94% |       43937      2.49%     99.43% |        7137      0.40%     99.84% |        1599      0.09%     99.93% |        1093      0.06%     99.99% |         150      0.01%    100.00% |          23      0.00%    100.00% |           1      0.00%    100.00% |           3      0.00%    100.00% (Unspecified)
system.caches.RequestType.LD.miss_latency_hist_seqr::total      1763909                       (Unspecified)
system.caches.RequestType.ST.latency_hist_seqr::bucket_size          512                       (Unspecified)
system.caches.RequestType.ST.latency_hist_seqr::max_bucket         5119                       (Unspecified)
system.caches.RequestType.ST.latency_hist_seqr::samples     20994118                       (Unspecified)
system.caches.RequestType.ST.latency_hist_seqr::mean     1.121822                       (Unspecified)
system.caches.RequestType.ST.latency_hist_seqr::gmean     1.070338                       (Unspecified)
system.caches.RequestType.ST.latency_hist_seqr::stdev     3.766472                       (Unspecified)
system.caches.RequestType.ST.latency_hist_seqr |    20993845    100.00%    100.00% |         201      0.00%    100.00% |          61      0.00%    100.00% |           6      0.00%    100.00% |           4      0.00%    100.00% |           1      0.00%    100.00% |           0      0.00%    100.00% |           0      0.00%    100.00% |           0      0.00%    100.00% |           0      0.00%    100.00% (Unspecified)
system.caches.RequestType.ST.latency_hist_seqr::total     20994118                       (Unspecified)
system.caches.RequestType.ST.hit_latency_hist_seqr::bucket_size           64                       (Unspecified)
system.caches.RequestType.ST.hit_latency_hist_seqr::max_bucket          639                       (Unspecified)
system.caches.RequestType.ST.hit_latency_hist_seqr::samples     20983967                       (Unspecified)
system.caches.RequestType.ST.hit_latency_hist_seqr::mean     1.096152                       (Unspecified)
system.caches.RequestType.ST.hit_latency_hist_seqr::gmean     1.068765                       (Unspecified)
system.caches.RequestType.ST.hit_latency_hist_seqr::stdev     0.413850                       (Unspecified)
system.caches.RequestType.ST.hit_latency_hist_seqr |    20983955    100.00%    100.00% |           0      0.00%    100.00% |           0      0.00%    100.00% |           0      0.00%    100.00% |           4      0.00%    100.00% |           6      0.00%    100.00% |           0      0.00%    100.00% |           0      0.00%    100.00% |           0      0.00%    100.00% |           2      0.00%    100.00% (Unspecified)
system.caches.RequestType.ST.hit_latency_hist_seqr::total     20983967                       (Unspecified)
system.caches.RequestType.ST.miss_latency_hist_seqr::bucket_size          512                       (Unspecified)
system.caches.RequestType.ST.miss_latency_hist_seqr::max_bucket         5119                       (Unspecified)
system.caches.RequestType.ST.miss_latency_hist_seqr::samples        10151                       (Unspecified)
system.caches.RequestType.ST.miss_latency_hist_seqr::mean    54.185597                       (Unspecified)
system.caches.RequestType.ST.miss_latency_hist_seqr::gmean    22.394527                       (Unspecified)
system.caches.RequestType.ST.miss_latency_hist_seqr::stdev   161.775408                       (Unspecified)
system.caches.RequestType.ST.miss_latency_hist_seqr |        9880     97.33%     97.33% |         199      1.96%     99.29% |          61      0.60%     99.89% |           6      0.06%     99.95% |           4      0.04%     99.99% |           1      0.01%    100.00% |           0      0.00%    100.00% |           0      0.00%    100.00% |           0      0.00%    100.00% |           0      0.00%    100.00% (Unspecified)
system.caches.RequestType.ST.miss_latency_hist_seqr::total        10151                       (Unspecified)
system.caches.RequestType.IFETCH.latency_hist_seqr::bucket_size          256                       (Unspecified)
system.caches.RequestType.IFETCH.latency_hist_seqr::max_bucket         2559                       (Unspecified)
system.caches.RequestType.IFETCH.latency_hist_seqr::samples     71328735                       (Unspecified)
system.caches.RequestType.IFETCH.latency_hist_seqr::mean     1.007220                       (Unspecified)
system.caches.RequestType.IFETCH.latency_hist_seqr::gmean     1.000770                       (Unspecified)
system.caches.RequestType.IFETCH.latency_hist_seqr::stdev     1.183017                       (Unspecified)
system.caches.RequestType.IFETCH.latency_hist_seqr |    71328271    100.00%    100.00% |         438      0.00%    100.00% |          16      0.00%    100.00% |           1      0.00%    100.00% |           2      0.00%    100.00% |           5      0.00%    100.00% |           1      0.00%    100.00% |           1      0.00%    100.00% |           0      0.00%    100.00% |           0      0.00%    100.00% (Unspecified)
system.caches.RequestType.IFETCH.latency_hist_seqr::total     71328735                       (Unspecified)
system.caches.RequestType.IFETCH.hit_latency_hist_seqr::bucket_size            1                       (Unspecified)
system.caches.RequestType.IFETCH.hit_latency_hist_seqr::max_bucket            9                       (Unspecified)
system.caches.RequestType.IFETCH.hit_latency_hist_seqr::samples     71308587                       (Unspecified)
system.caches.RequestType.IFETCH.hit_latency_hist_seqr::mean     1.000000                       (Unspecified)
system.caches.RequestType.IFETCH.hit_latency_hist_seqr::gmean     1.000000                       (Unspecified)
system.caches.RequestType.IFETCH.hit_latency_hist_seqr::stdev     0.000205                       (Unspecified)
system.caches.RequestType.IFETCH.hit_latency_hist_seqr |           0      0.00%      0.00% |    71308584    100.00%    100.00% |           3      0.00%    100.00% |           0      0.00%    100.00% |           0      0.00%    100.00% |           0      0.00%    100.00% |           0      0.00%    100.00% |           0      0.00%    100.00% |           0      0.00%    100.00% |           0      0.00%    100.00% (Unspecified)
system.caches.RequestType.IFETCH.hit_latency_hist_seqr::total     71308587                       (Unspecified)
system.caches.RequestType.IFETCH.miss_latency_hist_seqr::bucket_size          256                       (Unspecified)
system.caches.RequestType.IFETCH.miss_latency_hist_seqr::max_bucket         2559                       (Unspecified)
system.caches.RequestType.IFETCH.miss_latency_hist_seqr::samples        20148                       (Unspecified)
system.caches.RequestType.IFETCH.miss_latency_hist_seqr::mean    26.561594                       (Unspecified)
system.caches.RequestType.IFETCH.miss_latency_hist_seqr::gmean    15.273645                       (Unspecified)
system.caches.RequestType.IFETCH.miss_latency_hist_seqr::stdev    65.587117                       (Unspecified)
system.caches.RequestType.IFETCH.miss_latency_hist_seqr |       19684     97.70%     97.70% |         438      2.17%     99.87% |          16      0.08%     99.95% |           1      0.00%     99.96% |           2      0.01%     99.97% |           5      0.02%     99.99% |           1      0.00%    100.00% |           1      0.00%    100.00% |           0      0.00%    100.00% |           0      0.00%    100.00% (Unspecified)
system.caches.RequestType.IFETCH.miss_latency_hist_seqr::total        20148                       (Unspecified)
system.caches.RequestType.RMW_Read.latency_hist_seqr::bucket_size          256                       (Unspecified)
system.caches.RequestType.RMW_Read.latency_hist_seqr::max_bucket         2559                       (Unspecified)
system.caches.RequestType.RMW_Read.latency_hist_seqr::samples        18488                       (Unspecified)
system.caches.RequestType.RMW_Read.latency_hist_seqr::mean    11.677196                       (Unspecified)
system.caches.RequestType.RMW_Read.latency_hist_seqr::gmean     1.525454                       (Unspecified)
system.caches.RequestType.RMW_Read.latency_hist_seqr::stdev    84.884499                       (Unspecified)
system.caches.RequestType.RMW_Read.latency_hist_seqr |       18208     98.49%     98.49% |         146      0.79%     99.28% |          76      0.41%     99.69% |          24      0.13%     99.82% |          17      0.09%     99.91% |           9      0.05%     99.96% |           6      0.03%     99.99% |           1      0.01%     99.99% |           1      0.01%    100.00% |           0      0.00%    100.00% (Unspecified)
system.caches.RequestType.RMW_Read.latency_hist_seqr::total        18488                       (Unspecified)
system.caches.RequestType.RMW_Read.hit_latency_hist_seqr::bucket_size            4                       (Unspecified)
system.caches.RequestType.RMW_Read.hit_latency_hist_seqr::max_bucket           39                       (Unspecified)
system.caches.RequestType.RMW_Read.hit_latency_hist_seqr::samples        17133                       (Unspecified)
system.caches.RequestType.RMW_Read.hit_latency_hist_seqr::mean     1.323995                       (Unspecified)
system.caches.RequestType.RMW_Read.hit_latency_hist_seqr::gmean     1.182081                       (Unspecified)
system.caches.RequestType.RMW_Read.hit_latency_hist_seqr::stdev     1.524500                       (Unspecified)
system.caches.RequestType.RMW_Read.hit_latency_hist_seqr |       17034     99.42%     99.42% |           1      0.01%     99.43% |          18      0.11%     99.53% |          10      0.06%     99.59% |          11      0.06%     99.66% |          23      0.13%     99.79% |          32      0.19%     99.98% |           4      0.02%    100.00% |           0      0.00%    100.00% |           0      0.00%    100.00% (Unspecified)
system.caches.RequestType.RMW_Read.hit_latency_hist_seqr::total        17133                       (Unspecified)
system.caches.RequestType.RMW_Read.miss_latency_hist_seqr::bucket_size          256                       (Unspecified)
system.caches.RequestType.RMW_Read.miss_latency_hist_seqr::max_bucket         2559                       (Unspecified)
system.caches.RequestType.RMW_Read.miss_latency_hist_seqr::samples         1355                       (Unspecified)
system.caches.RequestType.RMW_Read.miss_latency_hist_seqr::mean   142.585978                       (Unspecified)
system.caches.RequestType.RMW_Read.miss_latency_hist_seqr::gmean    38.351043                       (Unspecified)
system.caches.RequestType.RMW_Read.miss_latency_hist_seqr::stdev   282.566789                       (Unspecified)
system.caches.RequestType.RMW_Read.miss_latency_hist_seqr |        1075     79.34%     79.34% |         146     10.77%     90.11% |          76      5.61%     95.72% |          24      1.77%     97.49% |          17      1.25%     98.75% |           9      0.66%     99.41% |           6      0.44%     99.85% |           1      0.07%     99.93% |           1      0.07%    100.00% |           0      0.00%    100.00% (Unspecified)
system.caches.RequestType.RMW_Read.miss_latency_hist_seqr::total         1355                       (Unspecified)
system.caches.RequestType.Locked_RMW_Read.latency_hist_seqr::bucket_size          256                       (Unspecified)
system.caches.RequestType.Locked_RMW_Read.latency_hist_seqr::max_bucket         2559                       (Unspecified)
system.caches.RequestType.Locked_RMW_Read.latency_hist_seqr::samples         6267                       (Unspecified)
system.caches.RequestType.Locked_RMW_Read.latency_hist_seqr::mean     5.374342                       (Unspecified)
system.caches.RequestType.Locked_RMW_Read.latency_hist_seqr::gmean     1.187278                       (Unspecified)
system.caches.RequestType.Locked_RMW_Read.latency_hist_seqr::stdev    51.708592                       (Unspecified)
system.caches.RequestType.Locked_RMW_Read.latency_hist_seqr |        6228     99.38%     99.38% |          23      0.37%     99.74% |          10      0.16%     99.90% |           2      0.03%     99.94% |           3      0.05%     99.98% |           0      0.00%     99.98% |           0      0.00%     99.98% |           1      0.02%    100.00% |           0      0.00%    100.00% |           0      0.00%    100.00% (Unspecified)
system.caches.RequestType.Locked_RMW_Read.latency_hist_seqr::total         6267                       (Unspecified)
system.caches.RequestType.Locked_RMW_Read.hit_latency_hist_seqr::bucket_size            1                       (Unspecified)
system.caches.RequestType.Locked_RMW_Read.hit_latency_hist_seqr::max_bucket            9                       (Unspecified)
system.caches.RequestType.Locked_RMW_Read.hit_latency_hist_seqr::samples         5942                       (Unspecified)
system.caches.RequestType.Locked_RMW_Read.hit_latency_hist_seqr::mean            1                       (Unspecified)
system.caches.RequestType.Locked_RMW_Read.hit_latency_hist_seqr::gmean            1                       (Unspecified)
system.caches.RequestType.Locked_RMW_Read.hit_latency_hist_seqr |           0      0.00%      0.00% |        5942    100.00%    100.00% |           0      0.00%    100.00% |           0      0.00%    100.00% |           0      0.00%    100.00% |           0      0.00%    100.00% |           0      0.00%    100.00% |           0      0.00%    100.00% |           0      0.00%    100.00% |           0      0.00%    100.00% (Unspecified)
system.caches.RequestType.Locked_RMW_Read.hit_latency_hist_seqr::total         5942                       (Unspecified)
system.caches.RequestType.Locked_RMW_Read.miss_latency_hist_seqr::bucket_size          256                       (Unspecified)
system.caches.RequestType.Locked_RMW_Read.miss_latency_hist_seqr::max_bucket         2559                       (Unspecified)
system.caches.RequestType.Locked_RMW_Read.miss_latency_hist_seqr::samples          325                       (Unspecified)
system.caches.RequestType.Locked_RMW_Read.miss_latency_hist_seqr::mean    85.350769                       (Unspecified)
system.caches.RequestType.Locked_RMW_Read.miss_latency_hist_seqr::gmean    27.390650                       (Unspecified)
system.caches.RequestType.Locked_RMW_Read.miss_latency_hist_seqr::stdev   211.996841                       (Unspecified)
system.caches.RequestType.Locked_RMW_Read.miss_latency_hist_seqr |         286     88.00%     88.00% |          23      7.08%     95.08% |          10      3.08%     98.15% |           2      0.62%     98.77% |           3      0.92%     99.69% |           0      0.00%     99.69% |           0      0.00%     99.69% |           1      0.31%    100.00% |           0      0.00%    100.00% |           0      0.00%    100.00% (Unspecified)
system.caches.RequestType.Locked_RMW_Read.miss_latency_hist_seqr::total          325                       (Unspecified)
system.caches.RequestType.Locked_RMW_Write.latency_hist_seqr::bucket_size            1                       (Unspecified)
system.caches.RequestType.Locked_RMW_Write.latency_hist_seqr::max_bucket            9                       (Unspecified)
system.caches.RequestType.Locked_RMW_Write.latency_hist_seqr::samples         6267                       (Unspecified)
system.caches.RequestType.Locked_RMW_Write.latency_hist_seqr::mean            1                       (Unspecified)
system.caches.RequestType.Locked_RMW_Write.latency_hist_seqr::gmean            1                       (Unspecified)
system.caches.RequestType.Locked_RMW_Write.latency_hist_seqr |           0      0.00%      0.00% |        6267    100.00%    100.00% |           0      0.00%    100.00% |           0      0.00%    100.00% |           0      0.00%    100.00% |           0      0.00%    100.00% |           0      0.00%    100.00% |           0      0.00%    100.00% |           0      0.00%    100.00% |           0      0.00%    100.00% (Unspecified)
system.caches.RequestType.Locked_RMW_Write.latency_hist_seqr::total         6267                       (Unspecified)
system.caches.RequestType.Locked_RMW_Write.hit_latency_hist_seqr::bucket_size            1                       (Unspecified)
system.caches.RequestType.Locked_RMW_Write.hit_latency_hist_seqr::max_bucket            9                       (Unspecified)
system.caches.RequestType.Locked_RMW_Write.hit_latency_hist_seqr::samples         6267                       (Unspecified)
system.caches.RequestType.Locked_RMW_Write.hit_latency_hist_seqr::mean            1                       (Unspecified)
system.caches.RequestType.Locked_RMW_Write.hit_latency_hist_seqr::gmean            1                       (Unspecified)
system.caches.RequestType.Locked_RMW_Write.hit_latency_hist_seqr |           0      0.00%      0.00% |        6267    100.00%    100.00% |           0      0.00%    100.00% |           0      0.00%    100.00% |           0      0.00%    100.00% |           0      0.00%    100.00% |           0      0.00%    100.00% |           0      0.00%    100.00% |           0      0.00%    100.00% |           0      0.00%    100.00% (Unspecified)
system.caches.RequestType.Locked_RMW_Write.hit_latency_hist_seqr::total         6267                       (Unspecified)
system.caches.controllers0.fullyBusyCycles          767                       # cycles for which number of transistions == max transitions (Unspecified)
[...]
system.o3Cpu7.fetch.nisnDist::5                 13564      3.76%     90.03% # Number of instructions fetched each cycle (Total) (Count)
system.o3Cpu7.fetch.nisnDist::6                  5764      1.60%     91.62% # Number of instructions fetched each cycle (Total) (Count)
system.o3Cpu7.fetch.nisnDist::7                  3097      0.86%     92.48% # Number of instructions fetched each cycle (Total) (Count)
system.o3Cpu7.fetch.nisnDist::8                 27132      7.52%    100.00% # Number of instructions fetched each cycle (Total) (Count)
system.o3Cpu7.fetch.nisnDist::overflows             0      0.00%    100.00% # Number of instructions fetched each cycle (Total) (Count)
system.o3Cpu7.fetch.nisnDist::min_value             0                       # Number of instructions fetched each cycle (Total) (Count)
system.o3Cpu7.fetch.nisnDist::max_value             8                       # Number of instructions fetched each cycle (Total) (Count)
system.o3Cpu7.fetch.nisnDist::total            360875                       # Number of instructions fetched each cycle (Total) (Count)
system.o3Cpu7.fetch.branchRate               0.128489                       # Number of branch fetches per cycle (Ratio)
system.o3Cpu7.fetch.rate                     0.467907                       # Number of inst fetches per cycle ((Count/Cycle))
system.o3Cpu7.iew.idleCycles                        0                       # Number of cycles IEW is idle (Cycle)
system.o3Cpu7.iew.squashCycles                   2219                       # Number of cycles IEW is squashing (Cycle)
system.o3Cpu7.iew.blockCycles                   29593                       # Number of cycles IEW is blocking (Cycle)
system.o3Cpu7.iew.unblockCycles                  4916                       # Number of cycles IEW is unblocking (Cycle)
system.o3Cpu7.iew.dispatchedInsts              310138                       # Number of instructions dispatched to IQ (Count)
system.o3Cpu7.iew.dispSquashedInsts               111                       # Number of squashed instructions skipped by dispatch (Count)
system.o3Cpu7.iew.dispLoadInsts                 45638                       # Number of dispatched load instructions (Count)
system.o3Cpu7.iew.dispStoreInsts                25659                       # Number of dispatched store instructions (Count)
system.o3Cpu7.iew.dispNonSpecInsts               3188                       # Number of dispatched non-speculative instructions (Count)
system.o3Cpu7.iew.iqFullEvents                    144                       # Number of times the IQ has become full, causing a stall (Count)
system.o3Cpu7.iew.lsqFullEvents                  4659                       # Number of times the LSQ has become full, causing a stall (Count)
system.o3Cpu7.iew.memOrderViolationEvents          546                       # Number of memory order violations (Count)
system.o3Cpu7.iew.predictedTakenIncorrect          781                       # Number of branches that were predicted taken incorrectly (Count)
system.o3Cpu7.iew.predictedNotTakenIncorrect          820                       # Number of branches that were predicted not taken incorrectly (Count)
system.o3Cpu7.iew.branchMispredicts              1601                       # Number of branch mispredicts detected at execute (Count)
system.o3Cpu7.iew.instsToCommit                297183                       # Cumulative count of insts sent to commit (Count)
system.o3Cpu7.iew.writebackCount               296869                       # Cumulative count of insts written-back (Count)
system.o3Cpu7.iew.producerInst                 200174                       # Number of instructions producing a value (Count)
system.o3Cpu7.iew.consumerInst                 334787                       # Number of instructions consuming a value (Count)
system.o3Cpu7.iew.wbRate                     0.821139                       # Insts written-back per cycle ((Count/Cycle))
system.o3Cpu7.iew.wbFanout                   0.597914                       # Average fanout of values written-back ((Count/Count))
system.o3Cpu7.interrupts.clk_domain.clock         3200                       # Clock period in ticks (Tick)
system.o3Cpu7.lsq0.forwLoads                     5844                       # Number of loads that had data forwarded from stores (Count)
system.o3Cpu7.lsq0.squashedLoads                 4853                       # Number of loads squashed (Count)
system.o3Cpu7.lsq0.ignoredResponses                 5                       # Number of memory responses ignored because the instruction is squashed (Count)
system.o3Cpu7.lsq0.memOrderViolation              546                       # Number of memory ordering violations (Count)
system.o3Cpu7.lsq0.squashedStores                2607                       # Number of stores squashed (Count)
system.o3Cpu7.lsq0.rescheduledLoads                76                       # Number of loads that were rescheduled (Count)
system.o3Cpu7.lsq0.blockedByCache                   0                       # Number of times an access to memory failed due to the cache being blocked (Count)
system.o3Cpu7.lsq0.loadToUse::samples           40785                       # Distribution of cycle latency between the first time a load is issued and its completion (Unspecified)
system.o3Cpu7.lsq0.loadToUse::mean           9.524310                       # Distribution of cycle latency between the first time a load is issued and its completion (Unspecified)
system.o3Cpu7.lsq0.loadToUse::stdev         69.973371                       # Distribution of cycle latency between the first time a load is issued and its completion (Unspecified)
system.o3Cpu7.lsq0.loadToUse::0-9               39394     96.59%     96.59% # Distribution of cycle latency between the first time a load is issued and its completion (Unspecified)
system.o3Cpu7.lsq0.loadToUse::10-19               689      1.69%     98.28% # Distribution of cycle latency between the first time a load is issued and its completion (Unspecified)
system.o3Cpu7.lsq0.loadToUse::20-29               244      0.60%     98.88% # Distribution of cycle latency between the first time a load is issued and its completion (Unspecified)
system.o3Cpu7.lsq0.loadToUse::30-39                26      0.06%     98.94% # Distribution of cycle latency between the first time a load is issued and its completion (Unspecified)
system.o3Cpu7.lsq0.loadToUse::40-49                 1      0.00%     98.94% # Distribution of cycle latency between the first time a load is issued and its completion (Unspecified)
system.o3Cpu7.lsq0.loadToUse::50-59                 2      0.00%     98.95% # Distribution of cycle latency between the first time a load is issued and its completion (Unspecified)
system.o3Cpu7.lsq0.loadToUse::70-79                 5      0.01%     98.96% # Distribution of cycle latency between the first time a load is issued and its completion (Unspecified)
system.o3Cpu7.lsq0.loadToUse::80-89                 3      0.01%     98.97% # Distribution of cycle latency between the first time a load is issued and its completion (Unspecified)
system.o3Cpu7.lsq0.loadToUse::140-149               1      0.00%     98.97% # Distribution of cycle latency between the first time a load is issued and its completion (Unspecified)
system.o3Cpu7.lsq0.loadToUse::150-159               1      0.00%     98.97% # Distribution of cycle latency between the first time a load is issued and its completion (Unspecified)
system.o3Cpu7.lsq0.loadToUse::160-169               2      0.00%     98.98% # Distribution of cycle latency between the first time a load is issued and its completion (Unspecified)
system.o3Cpu7.lsq0.loadToUse::240-249               1      0.00%     98.98% # Distribution of cycle latency between the first time a load is issued and its completion (Unspecified)
system.o3Cpu7.lsq0.loadToUse::260-269               1      0.00%     98.98% # Distribution of cycle latency between the first time a load is issued and its completion (Unspecified)
system.o3Cpu7.lsq0.loadToUse::270-279               1      0.00%     98.98% # Distribution of cycle latency between the first time a load is issued and its completion (Unspecified)
system.o3Cpu7.lsq0.loadToUse::280-289               2      0.00%     98.99% # Distribution of cycle latency between the first time a load is issued and its completion (Unspecified)
system.o3Cpu7.lsq0.loadToUse::overflows           412      1.01%    100.00% # Distribution of cycle latency between the first time a load is issued and its completion (Unspecified)
system.o3Cpu7.lsq0.loadToUse::min_value             2                       # Distribution of cycle latency between the first time a load is issued and its completion (Unspecified)
system.o3Cpu7.lsq0.loadToUse::max_value          2700                       # Distribution of cycle latency between the first time a load is issued and its completion (Unspecified)
system.o3Cpu7.lsq0.loadToUse::total             40785                       # Distribution of cycle latency between the first time a load is issued and its completion (Unspecified)
system.o3Cpu7.mmu.dtb.rdAccesses                44378                       # TLB accesses on read requests (Count)
system.o3Cpu7.mmu.dtb.wrAccesses                24247                       # TLB accesses on write requests (Count)
system.o3Cpu7.mmu.dtb.rdMisses                     76                       # TLB misses on read requests (Count)
system.o3Cpu7.mmu.dtb.wrMisses                      2                       # TLB misses on write requests (Count)
system.o3Cpu7.mmu.dtb.walker.power_state.pwrStateResidencyTicks::UNDEFINED  72478187000                       # Cumulative time (in ticks) in various power states (Tick)
system.o3Cpu7.mmu.itb.rdAccesses                    0                       # TLB accesses on read requests (Count)
system.o3Cpu7.mmu.itb.wrAccesses                28033                       # TLB accesses on write requests (Count)
system.o3Cpu7.mmu.itb.rdMisses                      0                       # TLB misses on read requests (Count)
system.o3Cpu7.mmu.itb.wrMisses                      6                       # TLB misses on write requests (Count)
system.o3Cpu7.mmu.itb.walker.power_state.pwrStateResidencyTicks::UNDEFINED  72478187000                       # Cumulative time (in ticks) in various power states (Tick)
system.o3Cpu7.power_state.numTransitions          144                       # Number of power state transitions (Count)
system.o3Cpu7.power_state.ticksClkGated::samples           72                       # Distribution of time spent in the clock gated state (Tick)
system.o3Cpu7.power_state.ticksClkGated::mean 988626044.444444                       # Distribution of time spent in the clock gated state (Tick)
system.o3Cpu7.power_state.ticksClkGated::stdev 87826339.330134                       # Distribution of time spent in the clock gated state (Tick)
system.o3Cpu7.power_state.ticksClkGated::1000-5e+10           72    100.00%    100.00% # Distribution of time spent in the clock gated state (Tick)
system.o3Cpu7.power_state.ticksClkGated::min_value    253772000                       # Distribution of time spent in the clock gated state (Tick)
system.o3Cpu7.power_state.ticksClkGated::max_value    999488800                       # Distribution of time spent in the clock gated state (Tick)
system.o3Cpu7.power_state.ticksClkGated::total           72                       # Distribution of time spent in the clock gated state (Tick)
system.o3Cpu7.power_state.pwrStateResidencyTicks::ON     72292200                       # Cumulative time (in ticks) in various power states (Tick)
system.o3Cpu7.power_state.pwrStateResidencyTicks::CLK_GATED  71181075200                       # Cumulative time (in ticks) in various power states (Tick)
system.o3Cpu7.power_state.pwrStateResidencyTicks::OFF   1224819600                       # Cumulative time (in ticks) in various power states (Tick)
system.o3Cpu7.rename.squashCycles                2219                       # Number of cycles rename is squashing (Cycle)
system.o3Cpu7.rename.idleCycles                 58985                       # Number of cycles rename is idle (Cycle)
system.o3Cpu7.rename.blockCycles                55344                       # Number of cycles rename is blocking (Cycle)
system.o3Cpu7.rename.serializeStallCycles       168655                       # count of cycles rename stalled for serializing inst (Cycle)
system.o3Cpu7.rename.runCycles                  50583                       # Number of cycles rename is running (Cycle)
system.o3Cpu7.rename.unblockCycles              25084                       # Number of cycles rename is unblocking (Cycle)
system.o3Cpu7.rename.renamedInsts              315906                       # Number of instructions processed by rename (Count)
system.o3Cpu7.rename.ROBFullEvents               3707                       # Number of times rename has blocked due to ROB full (Count)
system.o3Cpu7.rename.IQFullEvents                2406                       # Number of times rename has blocked due to IQ full (Count)
system.o3Cpu7.rename.LQFullEvents                7336                       # Number of times rename has blocked due to LQ full (Count)
system.o3Cpu7.rename.SQFullEvents               11948                       # Number of times rename has blocked due to SQ full (Count)
system.o3Cpu7.rename.renamedOperands           455457                       # Number of destination operands rename has renamed (Count)
system.o3Cpu7.rename.lookups                   943744                       # Number of register rename lookups that rename has made (Count)
system.o3Cpu7.rename.intLookups                383754                       # Number of integer rename lookups (Count)
system.o3Cpu7.rename.committedMaps             401349                       # Number of HB maps that are committed (Count)
system.o3Cpu7.rename.undoneMaps                 54108                       # Number of HB maps that are undone due to squashing (Count)
system.o3Cpu7.rename.serializing                 3143                       # count of serializing insts renamed (Count)
system.o3Cpu7.rename.tempSerializing             3229                       # count of temporary serializing insts renamed (Count)
system.o3Cpu7.rename.skidInsts                  31402                       # count of insts added to the skid buffer (Count)
system.o3Cpu7.rob.reads                        647245                       # The number of ROB reads (Count)
system.o3Cpu7.rob.writes                       621549                       # The number of ROB writes (Count)
system.o3Cpu7.thread_0.numInsts                117439                       # Number of Instructions committed (Count)
system.o3Cpu7.thread_0.numOps                  275798                       # Number of Ops committed (Count)
system.o3Cpu7.thread_0.numMemRefs                   0                       # Number of Memory References (Count)
system.pc.bad_addr.power_state.pwrStateResidencyTicks::UNDEFINED  72478187000                       # Cumulative time (in ticks) in various power states (Tick)
system.pc.com_1.power_state.pwrStateResidencyTicks::UNDEFINED  72478187000                       # Cumulative time (in ticks) in various power states (Tick)
system.pc.default_bus.power_state.pwrStateResidencyTicks::UNDEFINED  72478187000                       # Cumulative time (in ticks) in various power states (Tick)
system.pc.empty_isa.power_state.pwrStateResidencyTicks::UNDEFINED  72478187000                       # Cumulative time (in ticks) in various power states (Tick)
system.pc.fake_com_2.power_state.pwrStateResidencyTicks::UNDEFINED  72478187000                       # Cumulative time (in ticks) in various power states (Tick)
system.pc.fake_com_3.power_state.pwrStateResidencyTicks::UNDEFINED  72478187000                       # Cumulative time (in ticks) in various power states (Tick)
system.pc.fake_com_4.power_state.pwrStateResidencyTicks::UNDEFINED  72478187000                       # Cumulative time (in ticks) in various power states (Tick)
system.pc.fake_floppy.power_state.pwrStateResidencyTicks::UNDEFINED  72478187000                       # Cumulative time (in ticks) in various power states (Tick)
system.pc.pci_host.power_state.pwrStateResidencyTicks::UNDEFINED  72478187000                       # Cumulative time (in ticks) in various power states (Tick)
system.pc.south_bridge.cmos.power_state.pwrStateResidencyTicks::UNDEFINED  72478187000                       # Cumulative time (in ticks) in various power states (Tick)
system.pc.south_bridge.dma1.power_state.pwrStateResidencyTicks::UNDEFINED  72478187000                       # Cumulative time (in ticks) in various power states (Tick)
system.pc.south_bridge.ide.disks0.IdeDisk.dmaReadFullPages            0                       # Number of full page size DMA reads (not PRD). (Count)
system.pc.south_bridge.ide.disks0.IdeDisk.dmaReadBytes            0                       # Number of bytes transfered via DMA reads (not PRD). (Byte)
system.pc.south_bridge.ide.disks0.IdeDisk.dmaReadTxs            0                       # Number of DMA read transactions (not PRD). (Count)
system.pc.south_bridge.ide.disks0.IdeDisk.dmaWriteFullPages            0                       # Number of full page size DMA writes. (Count)
system.pc.south_bridge.ide.disks0.IdeDisk.dmaWriteBytes            0                       # Number of bytes transfered via DMA writes. (Byte)
system.pc.south_bridge.ide.disks0.IdeDisk.dmaWriteTxs            0                       # Number of DMA write transactions. (Count)
system.pc.south_bridge.ide.disks1.IdeDisk.dmaReadFullPages            0                       # Number of full page size DMA reads (not PRD). (Count)
system.pc.south_bridge.ide.disks1.IdeDisk.dmaReadBytes            0                       # Number of bytes transfered via DMA reads (not PRD). (Byte)
system.pc.south_bridge.ide.disks1.IdeDisk.dmaReadTxs            0                       # Number of DMA read transactions (not PRD). (Count)
system.pc.south_bridge.ide.disks1.IdeDisk.dmaWriteFullPages            0                       # Number of full page size DMA writes. (Count)
system.pc.south_bridge.ide.disks1.IdeDisk.dmaWriteBytes            0                       # Number of bytes transfered via DMA writes. (Byte)
system.pc.south_bridge.ide.disks1.IdeDisk.dmaWriteTxs            0                       # Number of DMA write transactions. (Count)
system.pc.south_bridge.ide.power_state.pwrStateResidencyTicks::UNDEFINED  72478187000                       # Cumulative time (in ticks) in various power states (Tick)
system.pc.south_bridge.io_apic.power_state.pwrStateResidencyTicks::UNDEFINED  72478187000                       # Cumulative time (in ticks) in various power states (Tick)
system.pc.south_bridge.keyboard.power_state.pwrStateResidencyTicks::UNDEFINED  72478187000                       # Cumulative time (in ticks) in various power states (Tick)
system.pc.south_bridge.pic1.power_state.pwrStateResidencyTicks::UNDEFINED  72478187000                       # Cumulative time (in ticks) in various power states (Tick)
system.pc.south_bridge.pic2.power_state.pwrStateResidencyTicks::UNDEFINED  72478187000                       # Cumulative time (in ticks) in various power states (Tick)
system.pc.south_bridge.pit.power_state.pwrStateResidencyTicks::UNDEFINED  72478187000                       # Cumulative time (in ticks) in various power states (Tick)
system.pc.south_bridge.speaker.power_state.pwrStateResidencyTicks::UNDEFINED  72478187000                       # Cumulative time (in ticks) in various power states (Tick)
system.workload.inst.arm                            0                       # number of arm instructions executed (Count)
system.workload.inst.quiesce                        0                       # number of quiesce instructions executed (Count)

---------- End Simulation Statistics   ----------
