
---------- Begin Simulation Statistics ----------
simSeconds                                   0.076574                       # Number of seconds simulated (Second)
simTicks                                  76574395600                       # Number of ticks simulated (Tick)
finalTick                                250769792371200                       # Number of ticks from beginning of simulation (restored from checkpoints and never reset) (Tick)
simFreq                                  1000000000000                       # The number of ticks per simulated second ((Tick/Second))
hostSeconds                                   9283.22                       # Real time elapsed on the host (Second)
hostTickRate                                  8248691                       # The number of ticks simulated per host second (ticks/s) ((Tick/Second))
hostMemory                                   19919464                       # Number of bytes of host memory used (Byte)
simInsts                                     56962271                       # Number of instructions simulated (Count)
simOps                                       92863790                       # Number of ops (including micro ops) simulated (Count)
hostInstRate                                     6136                       # Simulator instruction rate (inst/s) ((Count/Second))
hostOpRate                                      10003                       # Simulator op (including micro ops) rate (op/s) ((Count/Second))
system.caches.delayHistogram::bucket_size            8                       # delay histogram for all message (Unspecified)
system.caches.delayHistogram::max_bucket           79                       # delay histogram for all message (Unspecified)
system.caches.delayHistogram::samples        34507697                       # delay histogram for all message (Unspecified)
system.caches.delayHistogram::mean           0.666303                       # delay histogram for all message (Unspecified)
system.caches.delayHistogram::stdev          2.215461                       # delay histogram for all message (Unspecified)
system.caches.delayHistogram             |    31957844     92.61%     92.61% |     2523766      7.31%     99.92% |       25627      0.07%    100.00% |         420      0.00%    100.00% |          33      0.00%    100.00% |           3      0.00%    100.00% |           3      0.00%    100.00% |           1      0.00%    100.00% |           0      0.00%    100.00% |           0      0.00%    100.00% # delay histogram for all message (Unspecified)
system.caches.delayHistogram::total          34507697                       # delay histogram for all message (Unspecified)
system.caches.m_outstandReqHistSeqr::bucket_size            2                       (Unspecified)
system.caches.m_outstandReqHistSeqr::max_bucket           19                       (Unspecified)
system.caches.m_outstandReqHistSeqr::samples     32785796                       (Unspecified)
system.caches.m_outstandReqHistSeqr::mean     4.139758                       (Unspecified)
system.caches.m_outstandReqHistSeqr::gmean     2.683635                       (Unspecified)
system.caches.m_outstandReqHistSeqr::stdev     3.838033                       (Unspecified)
system.caches.m_outstandReqHistSeqr      |    12971187     39.56%     39.56% |     5928195     18.08%     57.65% |     4059858     12.38%     70.03% |     3356765     10.24%     80.27% |     2226908      6.79%     87.06% |     2492135      7.60%     94.66% |      707671      2.16%     96.82% |      625622      1.91%     98.73% |      417455      1.27%    100.00% |           0      0.00%    100.00% (Unspecified)
system.caches.m_outstandReqHistSeqr::total     32785796                       (Unspecified)
system.caches.m_latencyHistSeqr::bucket_size         1024                       (Unspecified)
system.caches.m_latencyHistSeqr::max_bucket        10239                       (Unspecified)
system.caches.m_latencyHistSeqr::samples     32793746                       (Unspecified)
system.caches.m_latencyHistSeqr::mean      172.683517                       (Unspecified)
system.caches.m_latencyHistSeqr::gmean       2.855477                       (Unspecified)
system.caches.m_latencyHistSeqr::stdev     465.643010                       (Unspecified)
system.caches.m_latencyHistSeqr          |    30432807     92.80%     92.80% |     2003205      6.11%     98.91% |      307896      0.94%     99.85% |       49026      0.15%    100.00% |         798      0.00%    100.00% |          14      0.00%    100.00% |           0      0.00%    100.00% |           0      0.00%    100.00% |           0      0.00%    100.00% |           0      0.00%    100.00% (Unspecified)
system.caches.m_latencyHistSeqr::total       32793746                       (Unspecified)
system.caches.m_hitLatencyHistSeqr::bucket_size          512                       (Unspecified)
system.caches.m_hitLatencyHistSeqr::max_bucket         5119                       (Unspecified)
system.caches.m_hitLatencyHistSeqr::samples     27811418                       (Unspecified)
system.caches.m_hitLatencyHistSeqr::mean     1.017111                       (Unspecified)
system.caches.m_hitLatencyHistSeqr::gmean     1.002479                       (Unspecified)
system.caches.m_hitLatencyHistSeqr::stdev     3.902788                       (Unspecified)
system.caches.m_hitLatencyHistSeqr       |    27811057    100.00%    100.00% |         246      0.00%    100.00% |          79      0.00%    100.00% |          17      0.00%    100.00% |          14      0.00%    100.00% |           5      0.00%    100.00% |           0      0.00%    100.00% |           0      0.00%    100.00% |           0      0.00%    100.00% |           0      0.00%    100.00% (Unspecified)
system.caches.m_hitLatencyHistSeqr::total     27811418                       (Unspecified)
system.caches.m_missLatencyHistSeqr::bucket_size         1024                       (Unspecified)
system.caches.m_missLatencyHistSeqr::max_bucket        10239                       (Unspecified)
system.caches.m_missLatencyHistSeqr::samples      4982328                       (Unspecified)
system.caches.m_missLatencyHistSeqr::mean  1130.927569                       (Unspecified)
system.caches.m_missLatencyHistSeqr::gmean   984.646487                       (Unspecified)
system.caches.m_missLatencyHistSeqr::stdev   586.787416                       (Unspecified)
system.caches.m_missLatencyHistSeqr      |     2621504     52.62%     52.62% |     2003109     40.20%     92.82% |      307877      6.18%     99.00% |       49026      0.98%     99.98% |         798      0.02%    100.00% |          14      0.00%    100.00% |           0      0.00%    100.00% |           0      0.00%    100.00% |           0      0.00%    100.00% |           0      0.00%    100.00% (Unspecified)
system.caches.m_missLatencyHistSeqr::total      4982328                       (Unspecified)
system.caches.delayVCHist.vnet_0::bucket_size            8                       # delay histogram for vnet_0 (Unspecified)
system.caches.delayVCHist.vnet_0::max_bucket           79                       # delay histogram for vnet_0 (Unspecified)
system.caches.delayVCHist.vnet_0::samples     14775373                       # delay histogram for vnet_0 (Unspecified)
system.caches.delayVCHist.vnet_0::mean       1.535710                       # delay histogram for vnet_0 (Unspecified)
system.caches.delayVCHist.vnet_0::stdev      3.166728                       # delay histogram for vnet_0 (Unspecified)
system.caches.delayVCHist.vnet_0         |    12230930     82.78%     82.78% |     2518544     17.05%     99.82% |       25479      0.17%    100.00% |         384      0.00%    100.00% |          29      0.00%    100.00% |           3      0.00%    100.00% |           3      0.00%    100.00% |           1      0.00%    100.00% |           0      0.00%    100.00% |           0      0.00%    100.00% # delay histogram for vnet_0 (Unspecified)
system.caches.delayVCHist.vnet_0::total      14775373                       # delay histogram for vnet_0 (Unspecified)
system.caches.delayVCHist.vnet_1::bucket_size            4                       # delay histogram for vnet_1 (Unspecified)
system.caches.delayVCHist.vnet_1::max_bucket           39                       # delay histogram for vnet_1 (Unspecified)
system.caches.delayVCHist.vnet_1::samples     19661272                       # delay histogram for vnet_1 (Unspecified)
system.caches.delayVCHist.vnet_1::mean       0.015355                       # delay histogram for vnet_1 (Unspecified)
system.caches.delayVCHist.vnet_1::stdev      0.291629                       # delay histogram for vnet_1 (Unspecified)
system.caches.delayVCHist.vnet_1         |    19613825     99.76%     99.76% |       42037      0.21%     99.97% |        4935      0.03%    100.00% |         287      0.00%    100.00% |         100      0.00%    100.00% |          48      0.00%    100.00% |          21      0.00%    100.00% |          15      0.00%    100.00% |           2      0.00%    100.00% |           2      0.00%    100.00% # delay histogram for vnet_1 (Unspecified)
system.caches.delayVCHist.vnet_1::total      19661272                       # delay histogram for vnet_1 (Unspecified)
system.caches.delayVCHist.vnet_2::bucket_size            1                       # delay histogram for vnet_2 (Unspecified)
system.caches.delayVCHist.vnet_2::max_bucket            9                       # delay histogram for vnet_2 (Unspecified)
system.caches.delayVCHist.vnet_2::samples        71052                       # delay histogram for vnet_2 (Unspecified)
system.caches.delayVCHist.vnet_2::mean       0.000253                       # delay histogram for vnet_2 (Unspecified)
system.caches.delayVCHist.vnet_2::stdev      0.022508                       # delay histogram for vnet_2 (Unspecified)
system.caches.delayVCHist.vnet_2         |       71043     99.99%     99.99% |           0      0.00%     99.99% |           9      0.01%    100.00% |           0      0.00%    100.00% |           0      0.00%    100.00% |           0      0.00%    100.00% |           0      0.00%    100.00% |           0      0.00%    100.00% |           0      0.00%    100.00% |           0      0.00%    100.00% # delay histogram for vnet_2 (Unspecified)
system.caches.delayVCHist.vnet_2::total         71052                       # delay histogram for vnet_2 (Unspecified)
system.caches.L1Cache_Controller.Load    |      700977     12.82%     12.82% |      695706     12.72%     25.53% |      669681     12.24%     37.78% |      682679     12.48%     50.26% |      682833     12.48%     62.74% |      682027     12.47%     75.21% |      684937     12.52%     87.73% |      671035     12.27%    100.00% (Unspecified)
system.caches.L1Cache_Controller.Load::total      5469875                       (Unspecified)
system.caches.L1Cache_Controller.Ifetch  |      862852     12.60%     12.60% |      923213     13.48%     26.08% |      858924     12.54%     38.62% |      831906     12.15%     50.77% |      812134     11.86%     62.63% |      857895     12.53%     75.15% |      887284     12.96%     88.11% |      814424     11.89%    100.00% (Unspecified)
system.caches.L1Cache_Controller.Ifetch::total      6848632                       (Unspecified)
system.caches.L1Cache_Controller.Store   |     2571299     12.56%     12.56% |     2595048     12.67%     25.23% |     2544727     12.43%     37.66% |     2547816     12.44%     50.10% |     2532474     12.37%     62.47% |     2555154     12.48%     74.95% |     2587395     12.64%     87.59% |     2541339     12.41%    100.00% (Unspecified)
system.caches.L1Cache_Controller.Store::total     20475252                       (Unspecified)
system.caches.L1Cache_Controller.Inv     |        9012     12.89%     12.89% |        9307     13.31%     26.19% |        8044     11.50%     37.69% |       10106     14.45%     52.14% |        9346     13.36%     65.51% |        9246     13.22%     78.73% |        6189      8.85%     87.58% |        8690     12.42%    100.00% (Unspecified)
system.caches.L1Cache_Controller.Inv::total        69940                       (Unspecified)
system.caches.L1Cache_Controller.L1_Replacement |      616992     12.64%     12.64% |      614190     12.58%     25.22% |      605458     12.40%     37.63% |      607946     12.46%     50.08% |      605477     12.40%     62.49% |      608371     12.46%     74.95% |      614890     12.60%     87.55% |      607791     12.45%    100.00% (Unspecified)
system.caches.L1Cache_Controller.L1_Replacement::total      4881115                       (Unspecified)
system.caches.L1Cache_Controller.Fwd_GETS |         760     68.35%     68.35% |         209     18.79%     87.14% |          60      5.40%     92.54% |          40      3.60%     96.13% |           9      0.81%     96.94% |          17      1.53%     98.47% |          14      1.26%     99.73% |           3      0.27%    100.00% (Unspecified)
system.caches.L1Cache_Controller.Fwd_GETS::total         1112                       (Unspecified)
system.caches.L1Cache_Controller.Data    |           3    100.00%    100.00% |           0      0.00%    100.00% |           0      0.00%    100.00% |           0      0.00%    100.00% |           0      0.00%    100.00% |           0      0.00%    100.00% |           0      0.00%    100.00% |           0      0.00%    100.00% (Unspecified)
system.caches.L1Cache_Controller.Data::total            3                       (Unspecified)
system.caches.L1Cache_Controller.Data_Exclusive |      299464     12.51%     12.51% |      299897     12.52%     25.03% |      297181     12.41%     37.44% |      299461     12.51%     49.94% |      298733     12.47%     62.42% |      298804     12.48%     74.90% |      301236     12.58%     87.48% |      299886     12.52%    100.00% (Unspecified)
system.caches.L1Cache_Controller.Data_Exclusive::total      2394662                       (Unspecified)
system.caches.L1Cache_Controller.DataS_fromL1 |         119     10.70%     10.70% |         469     42.18%     52.88% |         252     22.66%     75.54% |         165     14.84%     90.38% |          53      4.77%     95.14% |          33      2.97%     98.11% |          11      0.99%     99.10% |          10      0.90%    100.00% (Unspecified)
system.caches.L1Cache_Controller.DataS_fromL1::total         1112                       (Unspecified)
system.caches.L1Cache_Controller.Data_all_Acks |      323520     12.51%     12.51% |      327338     12.66%     25.17% |      321576     12.43%     37.60% |      321862     12.45%     50.05% |      320181     12.38%     62.43% |      323096     12.49%     74.92% |      327167     12.65%     87.57% |      321391     12.43%    100.00% (Unspecified)
system.caches.L1Cache_Controller.Data_all_Acks::total      2586131                       (Unspecified)
system.caches.L1Cache_Controller.Ack     |        2307    100.00%    100.00% |           0      0.00%    100.00% |           0      0.00%    100.00% |           0      0.00%    100.00% |           0      0.00%    100.00% |           0      0.00%    100.00% |           0      0.00%    100.00% |           0      0.00%    100.00% (Unspecified)
system.caches.L1Cache_Controller.Ack::total         2307                       (Unspecified)
system.caches.L1Cache_Controller.Ack_all |         423    100.00%    100.00% |           0      0.00%    100.00% |           0      0.00%    100.00% |           0      0.00%    100.00% |           0      0.00%    100.00% |           0      0.00%    100.00% |           0      0.00%    100.00% |           0      0.00%    100.00% (Unspecified)
system.caches.L1Cache_Controller.Ack_all::total          423                       (Unspecified)
system.caches.L1Cache_Controller.WB_Ack  |      613017     12.64%     12.64% |      609706     12.57%     25.22% |      602065     12.42%     37.63% |      602700     12.43%     50.06% |      600755     12.39%     62.45% |      603779     12.45%     74.90% |      613322     12.65%     87.55% |      603664     12.45%    100.00% (Unspecified)
system.caches.L1Cache_Controller.WB_Ack::total      4849008                       (Unspecified)
system.caches.L1Cache_Controller.NP.Load |      298579     12.49%     12.49% |      299331     12.52%     25.01% |      296738     12.41%     37.42% |      299066     12.51%     49.93% |      298325     12.48%     62.41% |      298356     12.48%     74.89% |      300817     12.58%     87.47% |      299515     12.53%    100.00% (Unspecified)
system.caches.L1Cache_Controller.NP.Load::total      2390727                       (Unspecified)
system.caches.L1Cache_Controller.NP.Ifetch |         937     21.66%     21.66% |         307      7.10%     28.76% |         546     12.62%     41.39% |         353      8.16%     49.55% |         543     12.55%     62.10% |         552     12.76%     74.87% |         541     12.51%     87.38% |         546     12.62%    100.00% (Unspecified)
system.caches.L1Cache_Controller.NP.Ifetch::total         4325                       (Unspecified)
system.caches.L1Cache_Controller.NP.Store |      317696     12.49%     12.49% |      322850     12.69%     25.18% |      316462     12.44%     37.61% |      316850     12.45%     50.07% |      314897     12.38%     62.44% |      317747     12.49%     74.93% |      321809     12.65%     87.58% |      316020     12.42%    100.00% (Unspecified)
system.caches.L1Cache_Controller.NP.Store::total      2544331                       (Unspecified)
system.caches.L1Cache_Controller.NP.Inv  |          42      5.76%      5.76% |          73     10.01%     15.78% |          88     12.07%     27.85% |         104     14.27%     42.11% |         103     14.13%     56.24% |         107     14.68%     70.92% |         105     14.40%     85.32% |         107     14.68%    100.00% (Unspecified)
system.caches.L1Cache_Controller.NP.Inv::total          729                       (Unspecified)
system.caches.L1Cache_Controller.I.Load  |        1904     12.02%     12.02% |        1985     12.53%     24.55% |        2018     12.74%     37.28% |        1970     12.43%     49.72% |        1967     12.41%     62.13% |        2035     12.84%     74.97% |        1996     12.60%     87.57% |        1969     12.43%    100.00% (Unspecified)
system.caches.L1Cache_Controller.I.Load::total        15844                       (Unspecified)
system.caches.L1Cache_Controller.I.Ifetch |        3416     14.73%     14.73% |        2825     12.18%     26.92% |        2826     12.19%     39.10% |        2828     12.20%     51.30% |        2820     12.16%     63.46% |        2825     12.18%     75.65% |        2827     12.19%     87.84% |        2820     12.16%    100.00% (Unspecified)
system.caches.L1Cache_Controller.I.Ifetch::total        23187                       (Unspecified)
system.caches.L1Cache_Controller.I.Store |         577     16.45%     16.45% |         407     11.61%     28.06% |         422     12.03%     40.09% |         422     12.03%     52.12% |         416     11.86%     63.99% |         419     11.95%     75.93% |         425     12.12%     88.05% |         419     11.95%    100.00% (Unspecified)
system.caches.L1Cache_Controller.I.Store::total         3507                       (Unspecified)
system.caches.L1Cache_Controller.I.L1_Replacement |        2948     11.40%     11.40% |        3926     15.18%     26.57% |        2601     10.05%     36.63% |        4660     18.01%     54.64% |        3928     15.18%     69.82% |        3771     14.58%     84.40% |         746      2.88%     87.28% |        3290     12.72%    100.00% (Unspecified)
system.caches.L1Cache_Controller.I.L1_Replacement::total        25870                       (Unspecified)
system.caches.L1Cache_Controller.S.Load  |       25431     11.03%     11.03% |       32853     14.25%     25.28% |       34905     15.14%     40.42% |       30803     13.36%     53.78% |       27347     11.86%     65.64% |       27637     11.99%     77.63% |       25570     11.09%     88.72% |       25996     11.28%    100.00% (Unspecified)
system.caches.L1Cache_Controller.S.Load::total       230542                       (Unspecified)
system.caches.L1Cache_Controller.S.Ifetch |      858499     12.59%     12.59% |      920081     13.49%     26.07% |      855552     12.54%     38.62% |      828725     12.15%     50.77% |      808771     11.86%     62.62% |      854518     12.53%     75.15% |      883916     12.96%     88.11% |      811058     11.89%    100.00% (Unspecified)
system.caches.L1Cache_Controller.S.Ifetch::total      6821120                       (Unspecified)
system.caches.L1Cache_Controller.S.Store |         420    100.00%    100.00% |           0      0.00%    100.00% |           0      0.00%    100.00% |           0      0.00%    100.00% |           0      0.00%    100.00% |           0      0.00%    100.00% |           0      0.00%    100.00% |           0      0.00%    100.00% (Unspecified)
system.caches.L1Cache_Controller.S.Store::total          420                       (Unspecified)
system.caches.L1Cache_Controller.S.Inv   |        4525     13.44%     13.44% |        4195     12.46%     25.90% |        4194     12.46%     38.35% |        4197     12.47%     50.82% |        4134     12.28%     63.10% |        4160     12.36%     75.45% |        4139     12.29%     87.75% |        4126     12.25%    100.00% (Unspecified)
system.caches.L1Cache_Controller.S.Inv::total        33670                       (Unspecified)
system.caches.L1Cache_Controller.S.L1_Replacement |        1027     16.47%     16.47% |         558      8.95%     25.42% |         792     12.70%     38.12% |         586      9.40%     47.51% |         794     12.73%     60.25% |         821     13.17%     73.41% |         821     13.17%     86.58% |         837     13.42%    100.00% (Unspecified)
system.caches.L1Cache_Controller.S.L1_Replacement::total         6236                       (Unspecified)
system.caches.L1Cache_Controller.E.Load  |      339132     12.77%     12.77% |      341803     12.87%     25.64% |      315752     11.89%     37.52% |      330878     12.46%     49.98% |      335141     12.62%     62.60% |      333728     12.56%     75.16% |      336402     12.66%     87.83% |      323331     12.17%    100.00% (Unspecified)
system.caches.L1Cache_Controller.E.Load::total      2656167                       (Unspecified)
system.caches.L1Cache_Controller.E.Store |         310     17.39%     17.39% |         208     11.67%     29.05% |         212     11.89%     40.94% |         219     12.28%     53.22% |         200     11.22%     64.44% |         208     11.67%     76.11% |         211     11.83%     87.94% |         215     12.06%    100.00% (Unspecified)
system.caches.L1Cache_Controller.E.Store::total         1783                       (Unspecified)
system.caches.L1Cache_Controller.E.Inv   |        1521      9.19%      9.19% |        3126     18.89%     28.08% |         892      5.39%     33.47% |        3063     18.51%     51.98% |        1620      9.79%     61.76% |        3271     19.76%     81.53% |         902      5.45%     86.98% |        2155     13.02%    100.00% (Unspecified)
system.caches.L1Cache_Controller.E.Inv::total        16550                       (Unspecified)
system.caches.L1Cache_Controller.E.L1_Replacement |      289175     12.38%     12.38% |      291779     12.49%     24.86% |      291583     12.48%     37.34% |      291759     12.49%     49.83% |      292516     12.52%     62.35% |      290881     12.45%     74.80% |      295739     12.66%     87.46% |      293002     12.54%    100.00% (Unspecified)
system.caches.L1Cache_Controller.E.L1_Replacement::total      2336434                       (Unspecified)
system.caches.L1Cache_Controller.E.Fwd_GETS |         337     48.91%     48.91% |         209     30.33%     79.25% |          60      8.71%     87.95% |          40      5.81%     93.76% |           9      1.31%     95.07% |          17      2.47%     97.53% |          14      2.03%     99.56% |           3      0.44%    100.00% (Unspecified)
system.caches.L1Cache_Controller.E.Fwd_GETS::total          689                       (Unspecified)
system.caches.L1Cache_Controller.M.Load  |       35931     20.35%     20.35% |       19734     11.17%     31.52% |       20268     11.48%     43.00% |       19962     11.30%     54.30% |       20053     11.36%     65.66% |       20271     11.48%     77.14% |       20152     11.41%     88.55% |       20224     11.45%    100.00% (Unspecified)
system.caches.L1Cache_Controller.M.Load::total       176595                       (Unspecified)
system.caches.L1Cache_Controller.M.Store |     2252296     12.56%     12.56% |     2271583     12.67%     25.24% |     2227631     12.43%     37.66% |     2230325     12.44%     50.11% |     2216961     12.37%     62.48% |     2236780     12.48%     74.95% |     2264950     12.64%     87.59% |     2224685     12.41%    100.00% (Unspecified)
system.caches.L1Cache_Controller.M.Store::total     17925211                       (Unspecified)
system.caches.L1Cache_Controller.M.Inv   |        2924     15.44%     15.44% |        1905     10.06%     25.49% |        2852     15.06%     40.55% |        2730     14.41%     54.96% |        3483     18.39%     73.35% |        1706      9.01%     82.35% |        1043      5.51%     87.86% |        2300     12.14%    100.00% (Unspecified)
system.caches.L1Cache_Controller.M.Inv::total        18943                       (Unspecified)
system.caches.L1Cache_Controller.M.L1_Replacement |      323842     12.89%     12.89% |      317927     12.65%     25.54% |      310482     12.36%     37.90% |      310941     12.38%     50.27% |      308239     12.27%     62.54% |      312898     12.45%     75.00% |      317584     12.64%     87.64% |      310662     12.36%    100.00% (Unspecified)
system.caches.L1Cache_Controller.M.L1_Replacement::total      2512575                       (Unspecified)
system.caches.L1Cache_Controller.M.Fwd_GETS |         423    100.00%    100.00% |           0      0.00%    100.00% |           0      0.00%    100.00% |           0      0.00%    100.00% |           0      0.00%    100.00% |           0      0.00%    100.00% |           0      0.00%    100.00% |           0      0.00%    100.00% (Unspecified)
system.caches.L1Cache_Controller.M.Fwd_GETS::total          423                       (Unspecified)
system.caches.L1Cache_Controller.IS.Inv  |           0      0.00%      0.00% |           8     16.67%     16.67% |          18     37.50%     54.17% |          12     25.00%     79.17% |           6     12.50%     91.67% |           2      4.17%     95.83% |           0      0.00%     95.83% |           2      4.17%    100.00% (Unspecified)
system.caches.L1Cache_Controller.IS.Inv::total           48                       (Unspecified)
system.caches.L1Cache_Controller.IS.Data_Exclusive |      299464     12.51%     12.51% |      299897     12.52%     25.03% |      297181     12.41%     37.44% |      299461     12.51%     49.94% |      298733     12.47%     62.42% |      298804     12.48%     74.90% |      301236     12.58%     87.48% |      299886     12.52%    100.00% (Unspecified)
system.caches.L1Cache_Controller.IS.Data_Exclusive::total      2394662                       (Unspecified)
system.caches.L1Cache_Controller.IS.DataS_fromL1 |         119     10.70%     10.70% |         469     42.18%     52.88% |         252     22.66%     75.54% |         165     14.84%     90.38% |          53      4.77%     95.14% |          33      2.97%     98.11% |          11      0.99%     99.10% |          10      0.90%    100.00% (Unspecified)
system.caches.L1Cache_Controller.IS.DataS_fromL1::total         1112                       (Unspecified)
system.caches.L1Cache_Controller.IS.Data_all_Acks |        5251     13.73%     13.73% |        4074     10.65%     24.38% |        4675     12.22%     36.60% |        4579     11.97%     48.57% |        4863     12.71%     61.28% |        4929     12.88%     74.16% |        4933     12.90%     87.06% |        4951     12.94%    100.00% (Unspecified)
system.caches.L1Cache_Controller.IS.Data_all_Acks::total        38255                       (Unspecified)
system.caches.L1Cache_Controller.IM.Data |           3    100.00%    100.00% |           0      0.00%    100.00% |           0      0.00%    100.00% |           0      0.00%    100.00% |           0      0.00%    100.00% |           0      0.00%    100.00% |           0      0.00%    100.00% |           0      0.00%    100.00% (Unspecified)
system.caches.L1Cache_Controller.IM.Data::total            3                       (Unspecified)
system.caches.L1Cache_Controller.IM.Data_all_Acks |      318269     12.49%     12.49% |      323256     12.69%     25.18% |      316883     12.44%     37.62% |      317271     12.45%     50.07% |      315312     12.38%     62.44% |      318165     12.49%     74.93% |      322234     12.65%     87.58% |      316438     12.42%    100.00% (Unspecified)
system.caches.L1Cache_Controller.IM.Data_all_Acks::total      2547828                       (Unspecified)
system.caches.L1Cache_Controller.SM.Ack  |        2307    100.00%    100.00% |           0      0.00%    100.00% |           0      0.00%    100.00% |           0      0.00%    100.00% |           0      0.00%    100.00% |           0      0.00%    100.00% |           0      0.00%    100.00% |           0      0.00%    100.00% (Unspecified)
system.caches.L1Cache_Controller.SM.Ack::total         2307                       (Unspecified)
system.caches.L1Cache_Controller.SM.Ack_all |         423    100.00%    100.00% |           0      0.00%    100.00% |           0      0.00%    100.00% |           0      0.00%    100.00% |           0      0.00%    100.00% |           0      0.00%    100.00% |           0      0.00%    100.00% |           0      0.00%    100.00% (Unspecified)
system.caches.L1Cache_Controller.SM.Ack_all::total          423                       (Unspecified)
system.caches.L1Cache_Controller.IS_I.Data_all_Acks |           0      0.00%      0.00% |           8     16.67%     16.67% |          18     37.50%     54.17% |          12     25.00%     79.17% |           6     12.50%     91.67% |           2      4.17%     95.83% |           0      0.00%     95.83% |           2      4.17%    100.00% (Unspecified)
system.caches.L1Cache_Controller.IS_I.Data_all_Acks::total           48                       (Unspecified)
system.caches.L1Cache_Controller.M_I.WB_Ack |      613017     12.64%     12.64% |      609706     12.57%     25.22% |      602065     12.42%     37.63% |      602700     12.43%     50.06% |      600755     12.39%     62.45% |      603779     12.45%     74.90% |      613322     12.65%     87.55% |      603664     12.45%    100.00% (Unspecified)
system.caches.L1Cache_Controller.M_I.WB_Ack::total      4849008                       (Unspecified)
system.caches.Directory_Controller.Fetch |        4423      0.09%      0.09% |     4940561     99.91%    100.00% (Unspecified)
system.caches.Directory_Controller.Fetch::total      4944984                       (Unspecified)
system.caches.Directory_Controller.Data  |         271      0.01%      0.01% |     2518521     99.99%    100.00% (Unspecified)
system.caches.Directory_Controller.Data::total      2518792                       (Unspecified)
system.caches.Directory_Controller.Memory_Data |        4423      0.09%      0.09% |     4940549     99.91%    100.00% (Unspecified)
system.caches.Directory_Controller.Memory_Data::total      4944972                       (Unspecified)
system.caches.Directory_Controller.Memory_Ack |         271      0.01%      0.01% |     2518521     99.99%    100.00% (Unspecified)
system.caches.Directory_Controller.Memory_Ack::total      2518792                       (Unspecified)
system.caches.Directory_Controller.CleanReplacement |        4143      0.18%      0.18% |     2290977     99.82%    100.00% (Unspecified)
system.caches.Directory_Controller.CleanReplacement::total      2295120                       (Unspecified)
system.caches.Directory_Controller.I.Fetch |        4423      0.09%      0.09% |     4940561     99.91%    100.00% (Unspecified)
system.caches.Directory_Controller.I.Fetch::total      4944984                       (Unspecified)
system.caches.Directory_Controller.M.Data |         271      0.01%      0.01% |     2518521     99.99%    100.00% (Unspecified)
system.caches.Directory_Controller.M.Data::total      2518792                       (Unspecified)
system.caches.Directory_Controller.M.CleanReplacement |        4143      0.18%      0.18% |     2290977     99.82%    100.00% (Unspecified)
system.caches.Directory_Controller.M.CleanReplacement::total      2295120                       (Unspecified)
system.caches.Directory_Controller.IM.Memory_Data |        4423      0.09%      0.09% |     4940549     99.91%    100.00% (Unspecified)
system.caches.Directory_Controller.IM.Memory_Data::total      4944972                       (Unspecified)
system.caches.Directory_Controller.MI.Memory_Ack |         271      0.01%      0.01% |     2518521     99.99%    100.00% (Unspecified)
system.caches.Directory_Controller.MI.Memory_Ack::total      2518792                       (Unspecified)
system.caches.L2Cache_Controller.L1_GET_INSTR |        3085     11.21%     11.21% |        4882     17.74%     28.95% |        3191     11.60%     40.55% |        2401      8.73%     49.27% |        3291     11.96%     61.23% |        3333     12.11%     73.34% |        3202     11.64%     84.98% |        4133     15.02%    100.00% (Unspecified)
system.caches.L2Cache_Controller.L1_GET_INSTR::total        27518                       (Unspecified)
system.caches.L2Cache_Controller.L1_GETS |      302595     12.57%     12.57% |      301589     12.53%     25.10% |      300684     12.49%     37.59% |      300256     12.47%     50.07% |      300152     12.47%     62.54% |      300132     12.47%     75.01% |      300841     12.50%     87.51% |      300751     12.49%    100.00% (Unspecified)
system.caches.L2Cache_Controller.L1_GETS::total      2407000                       (Unspecified)
system.caches.L2Cache_Controller.L1_GETX |      318709     12.51%     12.51% |      318636     12.51%     25.02% |      318070     12.48%     37.50% |      318335     12.49%     49.99% |      318286     12.49%     62.49% |      318730     12.51%     75.00% |      318445     12.50%     87.49% |      318629     12.51%    100.00% (Unspecified)
system.caches.L2Cache_Controller.L1_GETX::total      2547840                       (Unspecified)
system.caches.L2Cache_Controller.L1_UPGRADE |         155     33.55%     33.55% |          77     16.67%     50.22% |           0      0.00%     50.22% |           0      0.00%     50.22% |           0      0.00%     50.22% |           0      0.00%     50.22% |         230     49.78%    100.00% |           0      0.00%    100.00% (Unspecified)
system.caches.L2Cache_Controller.L1_UPGRADE::total          462                       (Unspecified)
system.caches.L2Cache_Controller.L1_PUTX |      606184     12.50%     12.50% |      606276     12.50%     25.00% |      605987     12.50%     37.50% |      606100     12.50%     50.00% |      606107     12.50%     62.50% |      606076     12.50%     75.00% |      606163     12.50%     87.50% |      606115     12.50%    100.00% (Unspecified)
system.caches.L2Cache_Controller.L1_PUTX::total      4849008                       (Unspecified)
system.caches.L2Cache_Controller.L2_Replacement |      312655     12.51%     12.51% |      312559     12.50%     25.01% |      312501     12.50%     37.51% |      312494     12.50%     50.01% |      312453     12.50%     62.50% |      312492     12.50%     75.00% |      312467     12.50%     87.50% |      312541     12.50%    100.00% (Unspecified)
system.caches.L2Cache_Controller.L2_Replacement::total      2500162                       (Unspecified)
system.caches.L2Cache_Controller.L2_Replacement_clean |      289419     12.51%     12.51% |      289534     12.51%     25.02% |      288750     12.48%     37.50% |      288943     12.49%     49.99% |      289040     12.49%     62.48% |      289576     12.52%     75.00% |      289130     12.50%     87.49% |      289358     12.51%    100.00% (Unspecified)
system.caches.L2Cache_Controller.L2_Replacement_clean::total      2313750                       (Unspecified)
system.caches.L2Cache_Controller.Mem_Data |      618455     12.51%     12.51% |      618476     12.51%     25.01% |      617635     12.49%     37.50% |      617820     12.49%     50.00% |      617874     12.49%     62.49% |      618452     12.51%     75.00% |      617980     12.50%     87.50% |      618280     12.50%    100.00% (Unspecified)
system.caches.L2Cache_Controller.Mem_Data::total      4944972                       (Unspecified)
system.caches.L2Cache_Controller.Mem_Ack |      602074     12.51%     12.51% |      602093     12.51%     25.01% |      601251     12.49%     37.50% |      601437     12.49%     50.00% |      601493     12.49%     62.49% |      602068     12.51%     75.00% |      601597     12.50%     87.50% |      601899     12.50%    100.00% (Unspecified)
system.caches.L2Cache_Controller.Mem_Ack::total      4813912                       (Unspecified)
system.caches.L2Cache_Controller.WB_Data |        2660     13.74%     13.74% |        2457     12.69%     26.42% |        1836      9.48%     35.90% |        2276     11.75%     47.66% |        2109     10.89%     58.55% |        2848     14.71%     73.25% |        2536     13.10%     86.35% |        2644     13.65%    100.00% (Unspecified)
system.caches.L2Cache_Controller.WB_Data::total        19366                       (Unspecified)
system.caches.L2Cache_Controller.WB_Data_clean |         150     21.77%     21.77% |          98     14.22%     35.99% |         113     16.40%     52.39% |          65      9.43%     61.83% |          64      9.29%     71.12% |          53      7.69%     78.81% |          37      5.37%     84.18% |         109     15.82%    100.00% (Unspecified)
system.caches.L2Cache_Controller.WB_Data_clean::total          689                       (Unspecified)
system.caches.L2Cache_Controller.Ack     |        4125     15.03%     15.03% |        3514     12.80%     27.83% |        3757     13.69%     41.51% |        2804     10.21%     51.73% |        3481     12.68%     64.41% |        3359     12.24%     76.64% |        3064     11.16%     87.80% |        3348     12.20%    100.00% (Unspecified)
system.caches.L2Cache_Controller.Ack::total        27452                       (Unspecified)
system.caches.L2Cache_Controller.Ack_all |        2822     13.29%     13.29% |        2998     14.12%     27.41% |        2725     12.83%     40.24% |        2450     11.54%     51.78% |        2700     12.71%     64.49% |        2481     11.68%     76.18% |        2511     11.82%     88.00% |        2548     12.00%    100.00% (Unspecified)
system.caches.L2Cache_Controller.Ack_all::total        21235                       (Unspecified)
system.caches.L2Cache_Controller.Unblock |         307     27.61%     27.61% |         175     15.74%     43.35% |         113     10.16%     53.51% |          65      5.85%     59.35% |          64      5.76%     65.11% |          53      4.77%     69.87% |         226     20.32%     90.20% |         109      9.80%    100.00% (Unspecified)
system.caches.L2Cache_Controller.Unblock::total         1112                       (Unspecified)
system.caches.L2Cache_Controller.Exclusive_Unblock |      618276     12.51%     12.51% |      618370     12.51%     25.02% |      617195     12.49%     37.51% |      617581     12.49%     50.00% |      617569     12.49%     62.49% |      618067     12.50%     75.00% |      617912     12.50%     87.50% |      617943     12.50%    100.00% (Unspecified)
system.caches.L2Cache_Controller.Exclusive_Unblock::total      4942913                       (Unspecified)
system.caches.L2Cache_Controller.NP.L1_GET_INSTR |         465     12.97%     12.97% |         458     12.78%     25.75% |         453     12.64%     38.38% |         365     10.18%     48.56% |         474     13.22%     61.79% |         466     13.00%     74.78% |         452     12.61%     87.39% |         452     12.61%    100.00% (Unspecified)
system.caches.L2Cache_Controller.NP.L1_GET_INSTR::total         3585                       (Unspecified)
system.caches.L2Cache_Controller.NP.L1_GETS |      299431     12.51%     12.51% |      299455     12.51%     25.02% |      299116     12.50%     37.51% |      299127     12.50%     50.01% |      299121     12.50%     62.50% |      299266     12.50%     75.00% |      299090     12.49%     87.50% |      299275     12.50%    100.00% (Unspecified)
system.caches.L2Cache_Controller.NP.L1_GETS::total      2393881                       (Unspecified)
system.caches.L2Cache_Controller.NP.L1_GETX |      318562     12.50%     12.50% |      318564     12.50%     25.01% |      318066     12.49%     37.50% |      318329     12.50%     49.99% |      318282     12.49%     62.48% |      318720     12.51%     75.00% |      318439     12.50%     87.50% |      318556     12.50%    100.00% (Unspecified)
system.caches.L2Cache_Controller.NP.L1_GETX::total      2547518                       (Unspecified)
system.caches.L2Cache_Controller.SS.L1_GET_INSTR |        2242     10.83%     10.83% |        4023     19.43%     30.26% |        2418     11.68%     41.94% |        1638      7.91%     49.85% |        2331     11.26%     61.11% |        2379     11.49%     72.60% |        2309     11.15%     83.75% |        3365     16.25%    100.00% (Unspecified)
system.caches.L2Cache_Controller.SS.L1_GET_INSTR::total        20705                       (Unspecified)
system.caches.L2Cache_Controller.SS.L1_GETS |        2646     27.39%     27.39% |        1560     16.15%     43.54% |        1267     13.12%     56.66% |         787      8.15%     64.80% |         700      7.25%     72.05% |         612      6.34%     78.39% |         926      9.59%     87.97% |        1162     12.03%    100.00% (Unspecified)
system.caches.L2Cache_Controller.SS.L1_GETS::total         9660                       (Unspecified)
system.caches.L2Cache_Controller.SS.L1_GETX |           2     66.67%     66.67% |           0      0.00%     66.67% |           0      0.00%     66.67% |           0      0.00%     66.67% |           0      0.00%     66.67% |           0      0.00%     66.67% |           1     33.33%    100.00% |           0      0.00%    100.00% (Unspecified)
system.caches.L2Cache_Controller.SS.L1_GETX::total            3                       (Unspecified)
system.caches.L2Cache_Controller.SS.L1_UPGRADE |         155     36.90%     36.90% |          77     18.33%     55.24% |           0      0.00%     55.24% |           0      0.00%     55.24% |           0      0.00%     55.24% |           0      0.00%     55.24% |         188     44.76%    100.00% |           0      0.00%    100.00% (Unspecified)
system.caches.L2Cache_Controller.SS.L1_UPGRADE::total          420                       (Unspecified)
system.caches.L2Cache_Controller.SS.L2_Replacement_clean |         689     14.71%     14.71% |         607     12.96%     27.66% |         635     13.55%     41.22% |         487     10.39%     51.61% |         579     12.36%     63.97% |         560     11.95%     75.92% |         507     10.82%     86.74% |         621     13.26%    100.00% (Unspecified)
system.caches.L2Cache_Controller.SS.L2_Replacement_clean::total         4685                       (Unspecified)
system.caches.L2Cache_Controller.M.L1_GET_INSTR |           1      8.33%      8.33% |           2     16.67%     25.00% |           1      8.33%     33.33% |           0      0.00%     33.33% |           0      0.00%     33.33% |           2     16.67%     50.00% |           3     25.00%     75.00% |           3     25.00%    100.00% (Unspecified)
system.caches.L2Cache_Controller.M.L1_GET_INSTR::total           12                       (Unspecified)
system.caches.L2Cache_Controller.M.L1_GETS |          58      4.85%      4.85% |         257     21.49%     26.34% |          78      6.52%     32.86% |         179     14.97%     47.83% |         207     17.31%     65.13% |         109      9.11%     74.25% |         206     17.22%     91.47% |         102      8.53%    100.00% (Unspecified)
system.caches.L2Cache_Controller.M.L1_GETS::total         1196                       (Unspecified)
system.caches.L2Cache_Controller.M.L1_GETX |         145     45.74%     45.74% |          72     22.71%     68.45% |           4      1.26%     69.72% |           6      1.89%     71.61% |           3      0.95%     72.56% |          10      3.15%     75.71% |           5      1.58%     77.29% |          72     22.71%    100.00% (Unspecified)
system.caches.L2Cache_Controller.M.L1_GETX::total          317                       (Unspecified)
system.caches.L2Cache_Controller.M.L2_Replacement |      312516     12.50%     12.50% |      312485     12.50%     25.00% |      312497     12.50%     37.50% |      312479     12.50%     50.00% |      312439     12.50%     62.50% |      312477     12.50%     75.00% |      312461     12.50%     87.50% |      312466     12.50%    100.00% (Unspecified)
system.caches.L2Cache_Controller.M.L2_Replacement::total      2499820                       (Unspecified)
system.caches.L2Cache_Controller.M.L2_Replacement_clean |      284233     12.50%     12.50% |      284230     12.50%     25.00% |      284193     12.50%     37.50% |      284232     12.50%     50.00% |      284245     12.50%     62.50% |      284262     12.50%     75.00% |      284278     12.50%     87.50% |      284241     12.50%    100.00% (Unspecified)
system.caches.L2Cache_Controller.M.L2_Replacement_clean::total      2273914                       (Unspecified)
system.caches.L2Cache_Controller.MT.L1_GETS |         307     27.61%     27.61% |         175     15.74%     43.35% |         113     10.16%     53.51% |          65      5.85%     59.35% |          64      5.76%     65.11% |          53      4.77%     69.87% |         226     20.32%     90.20% |         109      9.80%    100.00% (Unspecified)
system.caches.L2Cache_Controller.MT.L1_GETS::total         1112                       (Unspecified)
system.caches.L2Cache_Controller.MT.L1_PUTX |      606184     12.50%     12.50% |      606276     12.50%     25.00% |      605987     12.50%     37.50% |      606100     12.50%     50.00% |      606107     12.50%     62.50% |      606076     12.50%     75.00% |      606163     12.50%     87.50% |      606115     12.50%    100.00% (Unspecified)
system.caches.L2Cache_Controller.MT.L1_PUTX::total      4849008                       (Unspecified)
system.caches.L2Cache_Controller.MT.L2_Replacement |         139     40.64%     40.64% |          74     21.64%     62.28% |           4      1.17%     63.45% |          15      4.39%     67.84% |          14      4.09%     71.93% |          15      4.39%     76.32% |           6      1.75%     78.07% |          75     21.93%    100.00% (Unspecified)
system.caches.L2Cache_Controller.MT.L2_Replacement::total          342                       (Unspecified)
system.caches.L2Cache_Controller.MT.L2_Replacement_clean |        4497     12.79%     12.79% |        4697     13.36%     26.16% |        3922     11.16%     37.31% |        4224     12.02%     49.33% |        4216     11.99%     61.32% |        4754     13.52%     74.85% |        4345     12.36%     87.21% |        4496     12.79%    100.00% (Unspecified)
system.caches.L2Cache_Controller.MT.L2_Replacement_clean::total        35151                       (Unspecified)
system.caches.L2Cache_Controller.M_I.L1_GET_INSTR |           0      0.00%      0.00% |           0      0.00%      0.00% |           0      0.00%      0.00% |           2     33.33%     33.33% |           0      0.00%     33.33% |           0      0.00%     33.33% |           1     16.67%     50.00% |           3     50.00%    100.00% (Unspecified)
system.caches.L2Cache_Controller.M_I.L1_GET_INSTR::total            6                       (Unspecified)
system.caches.L2Cache_Controller.M_I.L1_GETS |           1     33.33%     33.33% |           0      0.00%     33.33% |           0      0.00%     33.33% |           1     33.33%     66.67% |           0      0.00%     66.67% |           1     33.33%    100.00% |           0      0.00%    100.00% |           0      0.00%    100.00% (Unspecified)
system.caches.L2Cache_Controller.M_I.L1_GETS::total            3                       (Unspecified)
system.caches.L2Cache_Controller.M_I.L1_GETX |           0      0.00%      0.00% |           0      0.00%      0.00% |           0      0.00%      0.00% |           0      0.00%      0.00% |           1     50.00%     50.00% |           0      0.00%     50.00% |           0      0.00%     50.00% |           1     50.00%    100.00% (Unspecified)
system.caches.L2Cache_Controller.M_I.L1_GETX::total            2                       (Unspecified)
system.caches.L2Cache_Controller.M_I.Mem_Ack |      602074     12.51%     12.51% |      602093     12.51%     25.01% |      601251     12.49%     37.50% |      601437     12.49%     50.00% |      601493     12.49%     62.49% |      602068     12.51%     75.00% |      601597     12.50%     87.50% |      601899     12.50%    100.00% (Unspecified)
system.caches.L2Cache_Controller.M_I.Mem_Ack::total      4813912                       (Unspecified)
system.caches.L2Cache_Controller.MT_I.WB_Data |         137     43.77%     43.77% |          69     22.04%     65.81% |           3      0.96%     66.77% |           8      2.56%     69.33% |           5      1.60%     70.93% |          12      3.83%     74.76% |           5      1.60%     76.36% |          74     23.64%    100.00% (Unspecified)
system.caches.L2Cache_Controller.MT_I.WB_Data::total          313                       (Unspecified)
system.caches.L2Cache_Controller.MT_I.Ack_all |           2      6.90%      6.90% |           5     17.24%     24.14% |           1      3.45%     27.59% |           7     24.14%     51.72% |           9     31.03%     82.76% |           3     10.34%     93.10% |           1      3.45%     96.55% |           1      3.45%    100.00% (Unspecified)
system.caches.L2Cache_Controller.MT_I.Ack_all::total           29                       (Unspecified)
system.caches.L2Cache_Controller.MCT_I.WB_Data |        2366     12.70%     12.70% |        2311     12.40%     25.10% |        1833      9.84%     34.94% |        2268     12.17%     47.12% |        2104     11.29%     58.41% |        2836     15.22%     73.63% |        2342     12.57%     86.21% |        2570     13.79%    100.00% (Unspecified)
system.caches.L2Cache_Controller.MCT_I.WB_Data::total        18630                       (Unspecified)
system.caches.L2Cache_Controller.MCT_I.Ack_all |        2131     12.90%     12.90% |        2386     14.44%     27.34% |        2089     12.64%     39.99% |        1956     11.84%     51.82% |        2112     12.78%     64.61% |        1918     11.61%     76.22% |        2003     12.12%     88.34% |        1926     11.66%    100.00% (Unspecified)
system.caches.L2Cache_Controller.MCT_I.Ack_all::total        16521                       (Unspecified)
system.caches.L2Cache_Controller.I_I.Ack |        4125     15.03%     15.03% |        3514     12.80%     27.83% |        3757     13.69%     41.51% |        2804     10.21%     51.73% |        3481     12.68%     64.41% |        3359     12.24%     76.64% |        3064     11.16%     87.80% |        3348     12.20%    100.00% (Unspecified)
system.caches.L2Cache_Controller.I_I.Ack::total        27452                       (Unspecified)
system.caches.L2Cache_Controller.I_I.Ack_all |         689     14.71%     14.71% |         607     12.96%     27.66% |         635     13.55%     41.22% |         487     10.39%     51.61% |         579     12.36%     63.97% |         560     11.95%     75.92% |         507     10.82%     86.74% |         621     13.26%    100.00% (Unspecified)
system.caches.L2Cache_Controller.I_I.Ack_all::total         4685                       (Unspecified)
system.caches.L2Cache_Controller.ISS.L1_GETS |          74     18.05%     18.05% |          54     13.17%     31.22% |          69     16.83%     48.05% |          59     14.39%     62.44% |          41     10.00%     72.44% |          38      9.27%     81.71% |          16      3.90%     85.61% |          59     14.39%    100.00% (Unspecified)
system.caches.L2Cache_Controller.ISS.L1_GETS::total          410                       (Unspecified)
system.caches.L2Cache_Controller.ISS.Mem_Data |      299356     12.51%     12.51% |      299401     12.51%     25.02% |      299047     12.49%     37.51% |      299067     12.50%     50.01% |      299079     12.50%     62.50% |      299228     12.50%     75.00% |      299073     12.50%     87.50% |      299215     12.50%    100.00% (Unspecified)
system.caches.L2Cache_Controller.ISS.Mem_Data::total      2393466                       (Unspecified)
system.caches.L2Cache_Controller.IS.L1_GET_INSTR |         377     11.74%     11.74% |         399     12.43%     24.17% |         319      9.94%     34.11% |         396     12.34%     46.45% |         486     15.14%     61.59% |         486     15.14%     76.73% |         437     13.61%     90.34% |         310      9.66%    100.00% (Unspecified)
system.caches.L2Cache_Controller.IS.L1_GET_INSTR::total         3210                       (Unspecified)
system.caches.L2Cache_Controller.IS.L1_GETS |          57     18.33%     18.33% |          65     20.90%     39.23% |          37     11.90%     51.13% |          38     12.22%     63.34% |          18      5.79%     69.13% |          47     15.11%     84.24% |          11      3.54%     87.78% |          38     12.22%    100.00% (Unspecified)
system.caches.L2Cache_Controller.IS.L1_GETS::total          311                       (Unspecified)
system.caches.L2Cache_Controller.IS.Mem_Data |         539     13.49%     13.49% |         512     12.82%     26.31% |         522     13.07%     39.37% |         424     10.61%     49.99% |         515     12.89%     62.88% |         504     12.62%     75.49% |         468     11.71%     87.21% |         511     12.79%    100.00% (Unspecified)
system.caches.L2Cache_Controller.IS.Mem_Data::total         3995                       (Unspecified)
system.caches.L2Cache_Controller.IM.Mem_Data |      318560     12.50%     12.50% |      318563     12.50%     25.01% |      318066     12.49%     37.49% |      318329     12.50%     49.99% |      318280     12.49%     62.48% |      318720     12.51%     75.00% |      318439     12.50%     87.50% |      318554     12.50%    100.00% (Unspecified)
system.caches.L2Cache_Controller.IM.Mem_Data::total      2547511                       (Unspecified)
system.caches.L2Cache_Controller.SS_MB.L1_GETS |           0      0.00%      0.00% |           0      0.00%      0.00% |           0      0.00%      0.00% |           0      0.00%      0.00% |           0      0.00%      0.00% |           0      0.00%      0.00% |         223    100.00%    100.00% |           0      0.00%    100.00% (Unspecified)
system.caches.L2Cache_Controller.SS_MB.L1_GETS::total          223                       (Unspecified)
system.caches.L2Cache_Controller.SS_MB.Exclusive_Unblock |         157     37.12%     37.12% |          77     18.20%     55.32% |           0      0.00%     55.32% |           0      0.00%     55.32% |           0      0.00%     55.32% |           0      0.00%     55.32% |         189     44.68%    100.00% |           0      0.00%    100.00% (Unspecified)
system.caches.L2Cache_Controller.SS_MB.Exclusive_Unblock::total          423                       (Unspecified)
system.caches.L2Cache_Controller.MT_MB.L1_GETS |           3     33.33%     33.33% |           1     11.11%     44.44% |           1     11.11%     55.56% |           0      0.00%     55.56% |           0      0.00%     55.56% |           2     22.22%     77.78% |           0      0.00%     77.78% |           2     22.22%    100.00% (Unspecified)
system.caches.L2Cache_Controller.MT_MB.L1_GETS::total            9                       (Unspecified)
system.caches.L2Cache_Controller.MT_MB.Exclusive_Unblock |      618119     12.51%     12.51% |      618293     12.51%     25.02% |      617195     12.49%     37.50% |      617581     12.50%     50.00% |      617569     12.50%     62.49% |      618067     12.51%     75.00% |      617723     12.50%     87.50% |      617943     12.50%    100.00% (Unspecified)
system.caches.L2Cache_Controller.MT_MB.Exclusive_Unblock::total      4942490                       (Unspecified)
system.caches.L2Cache_Controller.MT_IIB.L1_GETS |          14      7.95%      7.95% |          13      7.39%     15.34% |           3      1.70%     17.05% |           0      0.00%     17.05% |           1      0.57%     17.61% |           4      2.27%     19.89% |         139     78.98%     98.86% |           2      1.14%    100.00% (Unspecified)
system.caches.L2Cache_Controller.MT_IIB.L1_GETS::total          176                       (Unspecified)
system.caches.L2Cache_Controller.MT_IIB.WB_Data |         157     37.12%     37.12% |          77     18.20%     55.32% |           0      0.00%     55.32% |           0      0.00%     55.32% |           0      0.00%     55.32% |           0      0.00%     55.32% |         189     44.68%    100.00% |           0      0.00%    100.00% (Unspecified)
system.caches.L2Cache_Controller.MT_IIB.WB_Data::total          423                       (Unspecified)
system.caches.L2Cache_Controller.MT_IIB.WB_Data_clean |         150     21.77%     21.77% |          98     14.22%     35.99% |         113     16.40%     52.39% |          65      9.43%     61.83% |          64      9.29%     71.12% |          53      7.69%     78.81% |          37      5.37%     84.18% |         109     15.82%    100.00% (Unspecified)
system.caches.L2Cache_Controller.MT_IIB.WB_Data_clean::total          689                       (Unspecified)
system.caches.L2Cache_Controller.MT_SB.L1_GETS |           4     21.05%     21.05% |           9     47.37%     68.42% |           0      0.00%     68.42% |           0      0.00%     68.42% |           0      0.00%     68.42% |           0      0.00%     68.42% |           4     21.05%     89.47% |           2     10.53%    100.00% (Unspecified)
system.caches.L2Cache_Controller.MT_SB.L1_GETS::total           19                       (Unspecified)
system.caches.L2Cache_Controller.MT_SB.L1_UPGRADE |           0      0.00%      0.00% |           0      0.00%      0.00% |           0      0.00%      0.00% |           0      0.00%      0.00% |           0      0.00%      0.00% |           0      0.00%      0.00% |          42    100.00%    100.00% |           0      0.00%    100.00% (Unspecified)
system.caches.L2Cache_Controller.MT_SB.L1_UPGRADE::total           42                       (Unspecified)
system.caches.L2Cache_Controller.MT_SB.Unblock |         307     27.61%     27.61% |         175     15.74%     43.35% |         113     10.16%     53.51% |          65      5.85%     59.35% |          64      5.76%     65.11% |          53      4.77%     69.87% |         226     20.32%     90.20% |         109      9.80%    100.00% (Unspecified)
system.caches.L2Cache_Controller.MT_SB.Unblock::total         1112                       (Unspecified)
system.caches.RequestType.LD.latency_hist_seqr::bucket_size         1024                       (Unspecified)
system.caches.RequestType.LD.latency_hist_seqr::max_bucket        10239                       (Unspecified)
system.caches.RequestType.LD.latency_hist_seqr::samples      5469869                       (Unspecified)
system.caches.RequestType.LD.latency_hist_seqr::mean   483.396252                       (Unspecified)
system.caches.RequestType.LD.latency_hist_seqr::gmean    20.521580                       (Unspecified)
system.caches.RequestType.LD.latency_hist_seqr::stdev   666.210316                       (Unspecified)
system.caches.RequestType.LD.latency_hist_seqr |     4375343     79.99%     79.99% |      922740     16.87%     96.86% |      149965      2.74%     99.60% |       21261      0.39%     99.99% |         550      0.01%    100.00% |          10      0.00%    100.00% |           0      0.00%    100.00% |           0      0.00%    100.00% |           0      0.00%    100.00% |           0      0.00%    100.00% (Unspecified)
system.caches.RequestType.LD.latency_hist_seqr::total      5469869                       (Unspecified)
system.caches.RequestType.LD.hit_latency_hist_seqr::bucket_size            1                       (Unspecified)
system.caches.RequestType.LD.hit_latency_hist_seqr::max_bucket            9                       (Unspecified)
system.caches.RequestType.LD.hit_latency_hist_seqr::samples      3063304                       (Unspecified)
system.caches.RequestType.LD.hit_latency_hist_seqr::mean     1.000204                       (Unspecified)
system.caches.RequestType.LD.hit_latency_hist_seqr::gmean     1.000142                       (Unspecified)
system.caches.RequestType.LD.hit_latency_hist_seqr::stdev     0.014294                       (Unspecified)
system.caches.RequestType.LD.hit_latency_hist_seqr |           0      0.00%      0.00% |     3062678     99.98%     99.98% |         626      0.02%    100.00% |           0      0.00%    100.00% |           0      0.00%    100.00% |           0      0.00%    100.00% |           0      0.00%    100.00% |           0      0.00%    100.00% |           0      0.00%    100.00% |           0      0.00%    100.00% (Unspecified)
system.caches.RequestType.LD.hit_latency_hist_seqr::total      3063304                       (Unspecified)
system.caches.RequestType.LD.miss_latency_hist_seqr::bucket_size         1024                       (Unspecified)
system.caches.RequestType.LD.miss_latency_hist_seqr::max_bucket        10239                       (Unspecified)
system.caches.RequestType.LD.miss_latency_hist_seqr::samples      2406565                       (Unspecified)
system.caches.RequestType.LD.miss_latency_hist_seqr::mean  1097.435657                       (Unspecified)
system.caches.RequestType.LD.miss_latency_hist_seqr::gmean   960.370384                       (Unspecified)
system.caches.RequestType.LD.miss_latency_hist_seqr::stdev   579.256701                       (Unspecified)
system.caches.RequestType.LD.miss_latency_hist_seqr |     1312039     54.52%     54.52% |      922740     38.34%     92.86% |      149965      6.23%     99.09% |       21261      0.88%     99.98% |         550      0.02%    100.00% |          10      0.00%    100.00% |           0      0.00%    100.00% |           0      0.00%    100.00% |           0      0.00%    100.00% |           0      0.00%    100.00% (Unspecified)
system.caches.RequestType.LD.miss_latency_hist_seqr::total      2406565                       (Unspecified)
system.caches.RequestType.ST.latency_hist_seqr::bucket_size         1024                       (Unspecified)
system.caches.RequestType.ST.latency_hist_seqr::max_bucket        10239                       (Unspecified)
system.caches.RequestType.ST.latency_hist_seqr::samples     20443324                       (Unspecified)
system.caches.RequestType.ST.latency_hist_seqr::mean   147.136454                       (Unspecified)
system.caches.RequestType.ST.latency_hist_seqr::gmean     2.385388                       (Unspecified)
system.caches.RequestType.ST.latency_hist_seqr::stdev   438.839094                       (Unspecified)
system.caches.RequestType.ST.latency_hist_seqr |    19177609     93.81%     93.81% |     1079871      5.28%     99.09% |      157834      0.77%     99.86% |       27758      0.14%    100.00% |         248      0.00%    100.00% |           4      0.00%    100.00% |           0      0.00%    100.00% |           0      0.00%    100.00% |           0      0.00%    100.00% |           0      0.00%    100.00% (Unspecified)
system.caches.RequestType.ST.latency_hist_seqr::total     20443324                       (Unspecified)
system.caches.RequestType.ST.hit_latency_hist_seqr::bucket_size          256                       (Unspecified)
system.caches.RequestType.ST.hit_latency_hist_seqr::max_bucket         2559                       (Unspecified)
system.caches.RequestType.ST.hit_latency_hist_seqr::samples     17897144                       (Unspecified)
system.caches.RequestType.ST.hit_latency_hist_seqr::mean     1.009479                       (Unspecified)
system.caches.RequestType.ST.hit_latency_hist_seqr::gmean     1.003543                       (Unspecified)
system.caches.RequestType.ST.hit_latency_hist_seqr::stdev     2.085381                       (Unspecified)
system.caches.RequestType.ST.hit_latency_hist_seqr |    17897043    100.00%    100.00% |          30      0.00%    100.00% |          33      0.00%    100.00% |          13      0.00%    100.00% |          14      0.00%    100.00% |           5      0.00%    100.00% |           3      0.00%    100.00% |           0      0.00%    100.00% |           2      0.00%    100.00% |           1      0.00%    100.00% (Unspecified)
system.caches.RequestType.ST.hit_latency_hist_seqr::total     17897144                       (Unspecified)
system.caches.RequestType.ST.miss_latency_hist_seqr::bucket_size         1024                       (Unspecified)
system.caches.RequestType.ST.miss_latency_hist_seqr::max_bucket        10239                       (Unspecified)
system.caches.RequestType.ST.miss_latency_hist_seqr::samples      2546180                       (Unspecified)
system.caches.RequestType.ST.miss_latency_hist_seqr::mean  1174.265535                       (Unspecified)
system.caches.RequestType.ST.miss_latency_hist_seqr::gmean  1048.657251                       (Unspecified)
system.caches.RequestType.ST.miss_latency_hist_seqr::stdev   584.046472                       (Unspecified)
system.caches.RequestType.ST.miss_latency_hist_seqr |     1280490     50.29%     50.29% |     1079849     42.41%     92.70% |      157831      6.20%     98.90% |       27758      1.09%     99.99% |         248      0.01%    100.00% |           4      0.00%    100.00% |           0      0.00%    100.00% |           0      0.00%    100.00% |           0      0.00%    100.00% |           0      0.00%    100.00% (Unspecified)
system.caches.RequestType.ST.miss_latency_hist_seqr::total      2546180                       (Unspecified)
system.caches.RequestType.IFETCH.latency_hist_seqr::bucket_size          512                       (Unspecified)
system.caches.RequestType.IFETCH.latency_hist_seqr::max_bucket         5119                       (Unspecified)
system.caches.RequestType.IFETCH.latency_hist_seqr::samples      6848632                       (Unspecified)
system.caches.RequestType.IFETCH.latency_hist_seqr::mean     1.323548                       (Unspecified)
system.caches.RequestType.IFETCH.latency_hist_seqr::gmean     1.013366                       (Unspecified)
system.caches.RequestType.IFETCH.latency_hist_seqr::stdev    12.032058                       (Unspecified)
system.caches.RequestType.IFETCH.latency_hist_seqr |     6848323    100.00%    100.00% |         115      0.00%    100.00% |         106      0.00%    100.00% |          59      0.00%    100.00% |          21      0.00%    100.00% |           3      0.00%    100.00% |           5      0.00%    100.00% |           0      0.00%    100.00% |           0      0.00%    100.00% |           0      0.00%    100.00% (Unspecified)
system.caches.RequestType.IFETCH.latency_hist_seqr::total      6848632                       (Unspecified)
system.caches.RequestType.IFETCH.hit_latency_hist_seqr::bucket_size            1                       (Unspecified)
system.caches.RequestType.IFETCH.hit_latency_hist_seqr::max_bucket            9                       (Unspecified)
system.caches.RequestType.IFETCH.hit_latency_hist_seqr::samples      6821120                       (Unspecified)
system.caches.RequestType.IFETCH.hit_latency_hist_seqr::mean            1                       (Unspecified)
system.caches.RequestType.IFETCH.hit_latency_hist_seqr::gmean            1                       (Unspecified)
system.caches.RequestType.IFETCH.hit_latency_hist_seqr |           0      0.00%      0.00% |     6821120    100.00%    100.00% |           0      0.00%    100.00% |           0      0.00%    100.00% |           0      0.00%    100.00% |           0      0.00%    100.00% |           0      0.00%    100.00% |           0      0.00%    100.00% |           0      0.00%    100.00% |           0      0.00%    100.00% (Unspecified)
system.caches.RequestType.IFETCH.hit_latency_hist_seqr::total      6821120                       (Unspecified)
system.caches.RequestType.IFETCH.miss_latency_hist_seqr::bucket_size          512                       (Unspecified)
system.caches.RequestType.IFETCH.miss_latency_hist_seqr::max_bucket         5119                       (Unspecified)
system.caches.RequestType.IFETCH.miss_latency_hist_seqr::samples        27512                       (Unspecified)
system.caches.RequestType.IFETCH.miss_latency_hist_seqr::mean    81.541509                       (Unspecified)
system.caches.RequestType.IFETCH.miss_latency_hist_seqr::gmean    27.254160                       (Unspecified)
system.caches.RequestType.IFETCH.miss_latency_hist_seqr::stdev   171.983326                       (Unspecified)
system.caches.RequestType.IFETCH.miss_latency_hist_seqr |       27203     98.88%     98.88% |         115      0.42%     99.29% |         106      0.39%     99.68% |          59      0.21%     99.89% |          21      0.08%     99.97% |           3      0.01%     99.98% |           5      0.02%    100.00% |           0      0.00%    100.00% |           0      0.00%    100.00% |           0      0.00%    100.00% (Unspecified)
system.caches.RequestType.IFETCH.miss_latency_hist_seqr::total        27512                       (Unspecified)
system.caches.RequestType.RMW_Read.latency_hist_seqr::bucket_size          512                       (Unspecified)
system.caches.RequestType.RMW_Read.latency_hist_seqr::max_bucket         5119                       (Unspecified)
system.caches.RequestType.RMW_Read.latency_hist_seqr::samples        23011                       (Unspecified)
system.caches.RequestType.RMW_Read.latency_hist_seqr::mean    68.027726                       (Unspecified)
system.caches.RequestType.RMW_Read.latency_hist_seqr::gmean     1.985928                       (Unspecified)
system.caches.RequestType.RMW_Read.latency_hist_seqr::stdev   261.041589                       (Unspecified)
system.caches.RequestType.RMW_Read.latency_hist_seqr |       21479     93.34%     93.34% |        1087      4.72%     98.07% |         320      1.39%     99.46% |          61      0.27%     99.72% |          41      0.18%     99.90% |          21      0.09%     99.99% |           1      0.00%    100.00% |           1      0.00%    100.00% |           0      0.00%    100.00% |           0      0.00%    100.00% (Unspecified)
system.caches.RequestType.RMW_Read.latency_hist_seqr::total        23011                       (Unspecified)
system.caches.RequestType.RMW_Read.hit_latency_hist_seqr::bucket_size          512                       (Unspecified)
system.caches.RequestType.RMW_Read.hit_latency_hist_seqr::max_bucket         5119                       (Unspecified)
system.caches.RequestType.RMW_Read.hit_latency_hist_seqr::samples        21264                       (Unspecified)
system.caches.RequestType.RMW_Read.hit_latency_hist_seqr::mean    15.371661                       (Unspecified)
system.caches.RequestType.RMW_Read.hit_latency_hist_seqr::gmean     1.273220                       (Unspecified)
system.caches.RequestType.RMW_Read.hit_latency_hist_seqr::stdev   126.712390                       (Unspecified)
system.caches.RequestType.RMW_Read.hit_latency_hist_seqr |       20974     98.64%     98.64% |         200      0.94%     99.58% |          60      0.28%     99.86% |          14      0.07%     99.92% |          11      0.05%     99.98% |           5      0.02%    100.00% |           0      0.00%    100.00% |           0      0.00%    100.00% |           0      0.00%    100.00% |           0      0.00%    100.00% (Unspecified)
system.caches.RequestType.RMW_Read.hit_latency_hist_seqr::total        21264                       (Unspecified)
system.caches.RequestType.RMW_Read.miss_latency_hist_seqr::bucket_size          512                       (Unspecified)
system.caches.RequestType.RMW_Read.miss_latency_hist_seqr::max_bucket         5119                       (Unspecified)
system.caches.RequestType.RMW_Read.miss_latency_hist_seqr::samples         1747                       (Unspecified)
system.caches.RequestType.RMW_Read.miss_latency_hist_seqr::mean   708.942759                       (Unspecified)
system.caches.RequestType.RMW_Read.miss_latency_hist_seqr::gmean   444.463909                       (Unspecified)
system.caches.RequestType.RMW_Read.miss_latency_hist_seqr::stdev   507.666164                       (Unspecified)
system.caches.RequestType.RMW_Read.miss_latency_hist_seqr |         505     28.91%     28.91% |         887     50.77%     79.68% |         260     14.88%     94.56% |          47      2.69%     97.25% |          30      1.72%     98.97% |          16      0.92%     99.89% |           1      0.06%     99.94% |           1      0.06%    100.00% |           0      0.00%    100.00% |           0      0.00%    100.00% (Unspecified)
system.caches.RequestType.RMW_Read.miss_latency_hist_seqr::total         1747                       (Unspecified)
system.caches.RequestType.Locked_RMW_Read.latency_hist_seqr::bucket_size          512                       (Unspecified)
system.caches.RequestType.Locked_RMW_Read.latency_hist_seqr::max_bucket         5119                       (Unspecified)
system.caches.RequestType.Locked_RMW_Read.latency_hist_seqr::samples         4455                       (Unspecified)
system.caches.RequestType.Locked_RMW_Read.latency_hist_seqr::mean    52.227160                       (Unspecified)
system.caches.RequestType.Locked_RMW_Read.latency_hist_seqr::gmean     1.573898                       (Unspecified)
system.caches.RequestType.Locked_RMW_Read.latency_hist_seqr::stdev   225.914819                       (Unspecified)
system.caches.RequestType.Locked_RMW_Read.latency_hist_seqr |        4229     94.93%     94.93% |         167      3.75%     98.68% |          41      0.92%     99.60% |           7      0.16%     99.75% |           7      0.16%     99.91% |           4      0.09%    100.00% |           0      0.00%    100.00% |           0      0.00%    100.00% |           0      0.00%    100.00% |           0      0.00%    100.00% (Unspecified)
system.caches.RequestType.Locked_RMW_Read.latency_hist_seqr::total         4455                       (Unspecified)
system.caches.RequestType.Locked_RMW_Read.hit_latency_hist_seqr::bucket_size            1                       (Unspecified)
system.caches.RequestType.Locked_RMW_Read.hit_latency_hist_seqr::max_bucket            9                       (Unspecified)
system.caches.RequestType.Locked_RMW_Read.hit_latency_hist_seqr::samples         4131                       (Unspecified)
system.caches.RequestType.Locked_RMW_Read.hit_latency_hist_seqr::mean            1                       (Unspecified)
system.caches.RequestType.Locked_RMW_Read.hit_latency_hist_seqr::gmean            1                       (Unspecified)
system.caches.RequestType.Locked_RMW_Read.hit_latency_hist_seqr |           0      0.00%      0.00% |        4131    100.00%    100.00% |           0      0.00%    100.00% |           0      0.00%    100.00% |           0      0.00%    100.00% |           0      0.00%    100.00% |           0      0.00%    100.00% |           0      0.00%    100.00% |           0      0.00%    100.00% |           0      0.00%    100.00% (Unspecified)
system.caches.RequestType.Locked_RMW_Read.hit_latency_hist_seqr::total         4131                       (Unspecified)
system.caches.RequestType.Locked_RMW_Read.miss_latency_hist_seqr::bucket_size          512                       (Unspecified)
system.caches.RequestType.Locked_RMW_Read.miss_latency_hist_seqr::max_bucket         5119                       (Unspecified)
system.caches.RequestType.Locked_RMW_Read.miss_latency_hist_seqr::samples          324                       (Unspecified)
system.caches.RequestType.Locked_RMW_Read.miss_latency_hist_seqr::mean   705.373457                       (Unspecified)
system.caches.RequestType.Locked_RMW_Read.miss_latency_hist_seqr::gmean   511.006882                       (Unspecified)
system.caches.RequestType.Locked_RMW_Read.miss_latency_hist_seqr::stdev   492.236829                       (Unspecified)
system.caches.RequestType.Locked_RMW_Read.miss_latency_hist_seqr |          98     30.25%     30.25% |         167     51.54%     81.79% |          41     12.65%     94.44% |           7      2.16%     96.60% |           7      2.16%     98.77% |           4      1.23%    100.00% |           0      0.00%    100.00% |           0      0.00%    100.00% |           0      0.00%    100.00% |           0      0.00%    100.00% (Unspecified)
system.caches.RequestType.Locked_RMW_Read.miss_latency_hist_seqr::total          324                       (Unspecified)
system.caches.RequestType.Locked_RMW_Write.latency_hist_seqr::bucket_size            1                       (Unspecified)
system.caches.RequestType.Locked_RMW_Write.latency_hist_seqr::max_bucket            9                       (Unspecified)
system.caches.RequestType.Locked_RMW_Write.latency_hist_seqr::samples         4455                       (Unspecified)
system.caches.RequestType.Locked_RMW_Write.latency_hist_seqr::mean            1                       (Unspecified)
system.caches.RequestType.Locked_RMW_Write.latency_hist_seqr::gmean            1                       (Unspecified)
system.caches.RequestType.Locked_RMW_Write.latency_hist_seqr |           0      0.00%      0.00% |        4455    100.00%    100.00% |           0      0.00%    100.00% |           0      0.00%    100.00% |           0      0.00%    100.00% |           0      0.00%    100.00% |           0      0.00%    100.00% |           0      0.00%    100.00% |           0      0.00%    100.00% |           0      0.00%    100.00% (Unspecified)
system.caches.RequestType.Locked_RMW_Write.latency_hist_seqr::total         4455                       (Unspecified)
system.caches.RequestType.Locked_RMW_Write.hit_latency_hist_seqr::bucket_size            1                       (Unspecified)
system.caches.RequestType.Locked_RMW_Write.hit_latency_hist_seqr::max_bucket            9                       (Unspecified)
system.caches.RequestType.Locked_RMW_Write.hit_latency_hist_seqr::samples         4455                       (Unspecified)
system.caches.RequestType.Locked_RMW_Write.hit_latency_hist_seqr::mean            1                       (Unspecified)
system.caches.RequestType.Locked_RMW_Write.hit_latency_hist_seqr::gmean            1                       (Unspecified)
system.caches.RequestType.Locked_RMW_Write.hit_latency_hist_seqr |           0      0.00%      0.00% |        4455    100.00%    100.00% |           0      0.00%    100.00% |           0      0.00%    100.00% |           0      0.00%    100.00% |           0      0.00%    100.00% |           0      0.00%    100.00% |           0      0.00%    100.00% |           0      0.00%    100.00% |           0      0.00%    100.00% (Unspecified)
system.caches.RequestType.Locked_RMW_Write.hit_latency_hist_seqr::total         4455                       (Unspecified)
system.caches.controllers0.fullyBusyCycles       105503                       # cycles for which number of transistions == max transitions (Unspecified)
[...]
system.o3Cpu7.iew.squashCycles                   5585                       # Number of cycles IEW is squashing (Cycle)
system.o3Cpu7.iew.blockCycles                  158502                       # Number of cycles IEW is blocking (Cycle)
system.o3Cpu7.iew.unblockCycles             224110500                       # Number of cycles IEW is unblocking (Cycle)
system.o3Cpu7.iew.dispatchedInsts            11163993                       # Number of instructions dispatched to IQ (Count)
system.o3Cpu7.iew.dispSquashedInsts              1856                       # Number of squashed instructions skipped by dispatch (Count)
system.o3Cpu7.iew.dispLoadInsts               2322928                       # Number of dispatched load instructions (Count)
system.o3Cpu7.iew.dispStoreInsts              2548998                       # Number of dispatched store instructions (Count)
system.o3Cpu7.iew.dispNonSpecInsts               3222                       # Number of dispatched non-speculative instructions (Count)
system.o3Cpu7.iew.iqFullEvents                    299                       # Number of times the IQ has become full, causing a stall (Count)
system.o3Cpu7.iew.lsqFullEvents             224098119                       # Number of times the LSQ has become full, causing a stall (Count)
system.o3Cpu7.iew.memOrderViolationEvents          918                       # Number of memory order violations (Count)
system.o3Cpu7.iew.predictedTakenIncorrect         3677                       # Number of branches that were predicted taken incorrectly (Count)
system.o3Cpu7.iew.predictedNotTakenIncorrect         1036                       # Number of branches that were predicted not taken incorrectly (Count)
system.o3Cpu7.iew.branchMispredicts              4713                       # Number of branch mispredicts detected at execute (Count)
system.o3Cpu7.iew.instsToCommit              11096829                       # Cumulative count of insts sent to commit (Count)
system.o3Cpu7.iew.writebackCount             11096516                       # Cumulative count of insts written-back (Count)
system.o3Cpu7.iew.producerInst                5816053                       # Number of instructions producing a value (Count)
system.o3Cpu7.iew.consumerInst               11065602                       # Number of instructions consuming a value (Count)
system.o3Cpu7.iew.wbRate                     0.028982                       # Insts written-back per cycle ((Count/Cycle))
system.o3Cpu7.iew.wbFanout                   0.525598                       # Average fanout of values written-back ((Count/Count))
system.o3Cpu7.interrupts.clk_domain.clock         3200                       # Clock period in ticks (Tick)
system.o3Cpu7.lsq0.forwLoads                     8357                       # Number of loads that had data forwarded from stores (Count)
system.o3Cpu7.lsq0.squashedLoads                35405                       # Number of loads squashed (Count)
system.o3Cpu7.lsq0.ignoredResponses                42                       # Number of memory responses ignored because the instruction is squashed (Count)
system.o3Cpu7.lsq0.memOrderViolation              918                       # Number of memory ordering violations (Count)
system.o3Cpu7.lsq0.squashedStores               10640                       # Number of stores squashed (Count)
system.o3Cpu7.lsq0.rescheduledLoads                71                       # Number of loads that were rescheduled (Count)
system.o3Cpu7.lsq0.blockedByCache               49026                       # Number of times an access to memory failed due to the cache being blocked (Count)
system.o3Cpu7.lsq0.loadToUse::samples         2287520                       # Distribution of cycle latency between the first time a load is issued and its completion (Unspecified)
system.o3Cpu7.lsq0.loadToUse::mean         759.781603                       # Distribution of cycle latency between the first time a load is issued and its completion (Unspecified)
system.o3Cpu7.lsq0.loadToUse::stdev        722.252105                       # Distribution of cycle latency between the first time a load is issued and its completion (Unspecified)
system.o3Cpu7.lsq0.loadToUse::0-9              607115     26.54%     26.54% # Distribution of cycle latency between the first time a load is issued and its completion (Unspecified)
system.o3Cpu7.lsq0.loadToUse::10-19              6989      0.31%     26.85% # Distribution of cycle latency between the first time a load is issued and its completion (Unspecified)
system.o3Cpu7.lsq0.loadToUse::20-29             16364      0.72%     27.56% # Distribution of cycle latency between the first time a load is issued and its completion (Unspecified)
system.o3Cpu7.lsq0.loadToUse::30-39              9576      0.42%     27.98% # Distribution of cycle latency between the first time a load is issued and its completion (Unspecified)
system.o3Cpu7.lsq0.loadToUse::40-49              7711      0.34%     28.32% # Distribution of cycle latency between the first time a load is issued and its completion (Unspecified)
system.o3Cpu7.lsq0.loadToUse::50-59              3313      0.14%     28.46% # Distribution of cycle latency between the first time a load is issued and its completion (Unspecified)
system.o3Cpu7.lsq0.loadToUse::60-69              3522      0.15%     28.62% # Distribution of cycle latency between the first time a load is issued and its completion (Unspecified)
system.o3Cpu7.lsq0.loadToUse::70-79              6552      0.29%     28.90% # Distribution of cycle latency between the first time a load is issued and its completion (Unspecified)
system.o3Cpu7.lsq0.loadToUse::80-89              6141      0.27%     29.17% # Distribution of cycle latency between the first time a load is issued and its completion (Unspecified)
system.o3Cpu7.lsq0.loadToUse::90-99              5120      0.22%     29.39% # Distribution of cycle latency between the first time a load is issued and its completion (Unspecified)
system.o3Cpu7.lsq0.loadToUse::100-109            3149      0.14%     29.53% # Distribution of cycle latency between the first time a load is issued and its completion (Unspecified)
system.o3Cpu7.lsq0.loadToUse::110-119            2372      0.10%     29.64% # Distribution of cycle latency between the first time a load is issued and its completion (Unspecified)
system.o3Cpu7.lsq0.loadToUse::120-129            3199      0.14%     29.78% # Distribution of cycle latency between the first time a load is issued and its completion (Unspecified)
system.o3Cpu7.lsq0.loadToUse::130-139            4380      0.19%     29.97% # Distribution of cycle latency between the first time a load is issued and its completion (Unspecified)
system.o3Cpu7.lsq0.loadToUse::140-149            3843      0.17%     30.14% # Distribution of cycle latency between the first time a load is issued and its completion (Unspecified)
system.o3Cpu7.lsq0.loadToUse::150-159            3047      0.13%     30.27% # Distribution of cycle latency between the first time a load is issued and its completion (Unspecified)
system.o3Cpu7.lsq0.loadToUse::160-169            2293      0.10%     30.37% # Distribution of cycle latency between the first time a load is issued and its completion (Unspecified)
system.o3Cpu7.lsq0.loadToUse::170-179            2953      0.13%     30.50% # Distribution of cycle latency between the first time a load is issued and its completion (Unspecified)
system.o3Cpu7.lsq0.loadToUse::180-189            4321      0.19%     30.69% # Distribution of cycle latency between the first time a load is issued and its completion (Unspecified)
system.o3Cpu7.lsq0.loadToUse::190-199            4393      0.19%     30.88% # Distribution of cycle latency between the first time a load is issued and its completion (Unspecified)
system.o3Cpu7.lsq0.loadToUse::200-209            3438      0.15%     31.03% # Distribution of cycle latency between the first time a load is issued and its completion (Unspecified)
system.o3Cpu7.lsq0.loadToUse::210-219            2720      0.12%     31.15% # Distribution of cycle latency between the first time a load is issued and its completion (Unspecified)
system.o3Cpu7.lsq0.loadToUse::220-229            3657      0.16%     31.31% # Distribution of cycle latency between the first time a load is issued and its completion (Unspecified)
system.o3Cpu7.lsq0.loadToUse::230-239            5259      0.23%     31.54% # Distribution of cycle latency between the first time a load is issued and its completion (Unspecified)
system.o3Cpu7.lsq0.loadToUse::240-249            5229      0.23%     31.77% # Distribution of cycle latency between the first time a load is issued and its completion (Unspecified)
system.o3Cpu7.lsq0.loadToUse::250-259            4501      0.20%     31.96% # Distribution of cycle latency between the first time a load is issued and its completion (Unspecified)
system.o3Cpu7.lsq0.loadToUse::260-269            3141      0.14%     32.10% # Distribution of cycle latency between the first time a load is issued and its completion (Unspecified)
system.o3Cpu7.lsq0.loadToUse::270-279            3392      0.15%     32.25% # Distribution of cycle latency between the first time a load is issued and its completion (Unspecified)
system.o3Cpu7.lsq0.loadToUse::280-289            4079      0.18%     32.43% # Distribution of cycle latency between the first time a load is issued and its completion (Unspecified)
system.o3Cpu7.lsq0.loadToUse::290-299            4590      0.20%     32.63% # Distribution of cycle latency between the first time a load is issued and its completion (Unspecified)
system.o3Cpu7.lsq0.loadToUse::overflows       1541161     67.37%    100.00% # Distribution of cycle latency between the first time a load is issued and its completion (Unspecified)
system.o3Cpu7.lsq0.loadToUse::min_value             2                       # Distribution of cycle latency between the first time a load is issued and its completion (Unspecified)
system.o3Cpu7.lsq0.loadToUse::max_value          7689                       # Distribution of cycle latency between the first time a load is issued and its completion (Unspecified)
system.o3Cpu7.lsq0.loadToUse::total           2287520                       # Distribution of cycle latency between the first time a load is issued and its completion (Unspecified)
system.o3Cpu7.mmu.dtb.rdAccesses              2313885                       # TLB accesses on read requests (Count)
system.o3Cpu7.mmu.dtb.wrAccesses              2544913                       # TLB accesses on write requests (Count)
system.o3Cpu7.mmu.dtb.rdMisses                   3723                       # TLB misses on read requests (Count)
system.o3Cpu7.mmu.dtb.wrMisses                   2943                       # TLB misses on write requests (Count)
system.o3Cpu7.mmu.dtb.walker.power_state.pwrStateResidencyTicks::UNDEFINED  77588883800                       # Cumulative time (in ticks) in various power states (Tick)
system.o3Cpu7.mmu.itb.rdAccesses                    0                       # TLB accesses on read requests (Count)
system.o3Cpu7.mmu.itb.wrAccesses               814786                       # TLB accesses on write requests (Count)
system.o3Cpu7.mmu.itb.rdMisses                      0                       # TLB misses on read requests (Count)
system.o3Cpu7.mmu.itb.wrMisses                    192                       # TLB misses on write requests (Count)
system.o3Cpu7.mmu.itb.walker.power_state.pwrStateResidencyTicks::UNDEFINED  77588883800                       # Cumulative time (in ticks) in various power states (Tick)
system.o3Cpu7.power_state.pwrStateResidencyTicks::OFF  77588883800                       # Cumulative time (in ticks) in various power states (Tick)
system.o3Cpu7.rename.squashCycles                5585                       # Number of cycles rename is squashing (Cycle)
system.o3Cpu7.rename.idleCycles                594617                       # Number of cycles rename is idle (Cycle)
system.o3Cpu7.rename.blockCycles            224326469                       # Number of cycles rename is blocking (Cycle)
system.o3Cpu7.rename.serializeStallCycles      1023063                       # count of cycles rename stalled for serializing inst (Cycle)
system.o3Cpu7.rename.runCycles                 529191                       # Number of cycles rename is running (Cycle)
system.o3Cpu7.rename.unblockCycles          155233906                       # Number of cycles rename is unblocking (Cycle)
system.o3Cpu7.rename.renamedInsts            11178392                       # Number of instructions processed by rename (Count)
system.o3Cpu7.rename.ROBFullEvents              11158                       # Number of times rename has blocked due to ROB full (Count)
system.o3Cpu7.rename.IQFullEvents               96415                       # Number of times rename has blocked due to IQ full (Count)
system.o3Cpu7.rename.LQFullEvents               39823                       # Number of times rename has blocked due to LQ full (Count)
system.o3Cpu7.rename.SQFullEvents           155107601                       # Number of times rename has blocked due to SQ full (Count)
system.o3Cpu7.rename.renamedOperands         14089779                       # Number of destination operands rename has renamed (Count)
system.o3Cpu7.rename.lookups                 35784325                       # Number of register rename lookups that rename has made (Count)
system.o3Cpu7.rename.intLookups               8198922                       # Number of integer rename lookups (Count)
system.o3Cpu7.rename.fpLookups                9590133                       # Number of floating rename lookups (Count)
system.o3Cpu7.rename.committedMaps           13843552                       # Number of HB maps that are committed (Count)
system.o3Cpu7.rename.undoneMaps                246185                       # Number of HB maps that are undone due to squashing (Count)
system.o3Cpu7.rename.serializing                 3379                       # count of serializing insts renamed (Count)
system.o3Cpu7.rename.tempSerializing             3576                       # count of temporary serializing insts renamed (Count)
system.o3Cpu7.rename.skidInsts                6757993                       # count of insts added to the skid buffer (Count)
system.o3Cpu7.rob.reads                     392802243                       # The number of ROB reads (Count)
system.o3Cpu7.rob.writes                     22341029                       # The number of ROB writes (Count)
system.o3Cpu7.thread_0.numInsts               6651652                       # Number of Instructions committed (Count)
system.o3Cpu7.thread_0.numOps                11020751                       # Number of Ops committed (Count)
system.o3Cpu7.thread_0.numMemRefs                   0                       # Number of Memory References (Count)
system.pc.bad_addr.power_state.pwrStateResidencyTicks::UNDEFINED  77588883800                       # Cumulative time (in ticks) in various power states (Tick)
system.pc.com_1.power_state.pwrStateResidencyTicks::UNDEFINED  77588883800                       # Cumulative time (in ticks) in various power states (Tick)
system.pc.default_bus.power_state.pwrStateResidencyTicks::UNDEFINED  77588883800                       # Cumulative time (in ticks) in various power states (Tick)
system.pc.empty_isa.power_state.pwrStateResidencyTicks::UNDEFINED  77588883800                       # Cumulative time (in ticks) in various power states (Tick)
system.pc.fake_com_2.power_state.pwrStateResidencyTicks::UNDEFINED  77588883800                       # Cumulative time (in ticks) in various power states (Tick)
system.pc.fake_com_3.power_state.pwrStateResidencyTicks::UNDEFINED  77588883800                       # Cumulative time (in ticks) in various power states (Tick)
system.pc.fake_com_4.power_state.pwrStateResidencyTicks::UNDEFINED  77588883800                       # Cumulative time (in ticks) in various power states (Tick)
system.pc.fake_floppy.power_state.pwrStateResidencyTicks::UNDEFINED  77588883800                       # Cumulative time (in ticks) in various power states (Tick)
system.pc.pci_host.power_state.pwrStateResidencyTicks::UNDEFINED  77588883800                       # Cumulative time (in ticks) in various power states (Tick)
system.pc.south_bridge.cmos.power_state.pwrStateResidencyTicks::UNDEFINED  77588883800                       # Cumulative time (in ticks) in various power states (Tick)
system.pc.south_bridge.dma1.power_state.pwrStateResidencyTicks::UNDEFINED  77588883800                       # Cumulative time (in ticks) in various power states (Tick)
system.pc.south_bridge.ide.disks0.IdeDisk.dmaReadFullPages            0                       # Number of full page size DMA reads (not PRD). (Count)
system.pc.south_bridge.ide.disks0.IdeDisk.dmaReadBytes            0                       # Number of bytes transfered via DMA reads (not PRD). (Byte)
system.pc.south_bridge.ide.disks0.IdeDisk.dmaReadTxs            0                       # Number of DMA read transactions (not PRD). (Count)
system.pc.south_bridge.ide.disks0.IdeDisk.dmaWriteFullPages            0                       # Number of full page size DMA writes. (Count)
system.pc.south_bridge.ide.disks0.IdeDisk.dmaWriteBytes            0                       # Number of bytes transfered via DMA writes. (Byte)
system.pc.south_bridge.ide.disks0.IdeDisk.dmaWriteTxs            0                       # Number of DMA write transactions. (Count)
system.pc.south_bridge.ide.disks1.IdeDisk.dmaReadFullPages            0                       # Number of full page size DMA reads (not PRD). (Count)
system.pc.south_bridge.ide.disks1.IdeDisk.dmaReadBytes            0                       # Number of bytes transfered via DMA reads (not PRD). (Byte)
system.pc.south_bridge.ide.disks1.IdeDisk.dmaReadTxs            0                       # Number of DMA read transactions (not PRD). (Count)
system.pc.south_bridge.ide.disks1.IdeDisk.dmaWriteFullPages            0                       # Number of full page size DMA writes. (Count)
system.pc.south_bridge.ide.disks1.IdeDisk.dmaWriteBytes            0                       # Number of bytes transfered via DMA writes. (Byte)
system.pc.south_bridge.ide.disks1.IdeDisk.dmaWriteTxs            0                       # Number of DMA write transactions. (Count)
system.pc.south_bridge.ide.power_state.pwrStateResidencyTicks::UNDEFINED  77588883800                       # Cumulative time (in ticks) in various power states (Tick)
system.pc.south_bridge.io_apic.power_state.pwrStateResidencyTicks::UNDEFINED  77588883800                       # Cumulative time (in ticks) in various power states (Tick)
system.pc.south_bridge.keyboard.power_state.pwrStateResidencyTicks::UNDEFINED  77588883800                       # Cumulative time (in ticks) in various power states (Tick)
system.pc.south_bridge.pic1.power_state.pwrStateResidencyTicks::UNDEFINED  77588883800                       # Cumulative time (in ticks) in various power states (Tick)
system.pc.south_bridge.pic2.power_state.pwrStateResidencyTicks::UNDEFINED  77588883800                       # Cumulative time (in ticks) in various power states (Tick)
system.pc.south_bridge.pit.power_state.pwrStateResidencyTicks::UNDEFINED  77588883800                       # Cumulative time (in ticks) in various power states (Tick)
system.pc.south_bridge.speaker.power_state.pwrStateResidencyTicks::UNDEFINED  77588883800                       # Cumulative time (in ticks) in various power states (Tick)
system.workload.inst.arm                            0                       # number of arm instructions executed (Count)
system.workload.inst.quiesce                        0                       # number of quiesce instructions executed (Count)

---------- End Simulation Statistics   ----------
