
---------- Begin Simulation Statistics ----------
simSeconds                                   0.079509                       # Number of seconds simulated (Second)
simTicks                                  79509390440                       # Number of ticks simulated (Tick)
finalTick                                155137729411600                       # Number of ticks from beginning of simulation (restored from checkpoints and never reset) (Tick)
simFreq                                  1000000000000                       # The number of ticks per simulated second ((Tick/Second))
hostSeconds                                  12618.19                       # Real time elapsed on the host (Second)
hostTickRate                                  6301172                       # The number of ticks simulated per host second (ticks/s) ((Tick/Second))
hostMemory                                   19927936                       # Number of bytes of host memory used (Byte)
simInsts                                    182514575                       # Number of instructions simulated (Count)
simOps                                      368733486                       # Number of ops (including micro ops) simulated (Count)
hostInstRate                                    14464                       # Simulator instruction rate (inst/s) ((Count/Second))
hostOpRate                                      29222                       # Simulator op (including micro ops) rate (op/s) ((Count/Second))
system.caches.delayHistogram::bucket_size            8                       # delay histogram for all message (Unspecified)
system.caches.delayHistogram::max_bucket           79                       # delay histogram for all message (Unspecified)
system.caches.delayHistogram::samples        39521753                       # delay histogram for all message (Unspecified)
system.caches.delayHistogram::mean           0.238245                       # delay histogram for all message (Unspecified)
system.caches.delayHistogram::stdev          1.373037                       # delay histogram for all message (Unspecified)
system.caches.delayHistogram             |    38470196     97.34%     97.34% |     1045341      2.64%     99.98% |        6011      0.02%    100.00% |         131      0.00%    100.00% |          22      0.00%    100.00% |          10      0.00%    100.00% |           4      0.00%    100.00% |          28      0.00%    100.00% |          10      0.00%    100.00% |           0      0.00%    100.00% # delay histogram for all message (Unspecified)
system.caches.delayHistogram::total          39521753                       # delay histogram for all message (Unspecified)
system.caches.m_outstandReqHistSeqr::bucket_size            2                       (Unspecified)
system.caches.m_outstandReqHistSeqr::max_bucket           19                       (Unspecified)
system.caches.m_outstandReqHistSeqr::samples    110914922                       (Unspecified)
system.caches.m_outstandReqHistSeqr::mean     8.767842                       (Unspecified)
system.caches.m_outstandReqHistSeqr::gmean     6.742928                       (Unspecified)
system.caches.m_outstandReqHistSeqr::stdev     5.054377                       (Unspecified)
system.caches.m_outstandReqHistSeqr      |     9288769      8.37%      8.37% |    15116629     13.63%     22.00% |    12691753     11.44%     33.45% |    11729464     10.58%     44.02% |    11006178      9.92%     53.94% |    12636420     11.39%     65.34% |    10068169      9.08%     74.42% |    13763850     12.41%     86.82% |    14613690     13.18%    100.00% |           0      0.00%    100.00% (Unspecified)
system.caches.m_outstandReqHistSeqr::total    110914922                       (Unspecified)
system.caches.m_latencyHistSeqr::bucket_size         1024                       (Unspecified)
system.caches.m_latencyHistSeqr::max_bucket        10239                       (Unspecified)
system.caches.m_latencyHistSeqr::samples    110960673                       (Unspecified)
system.caches.m_latencyHistSeqr::mean       61.374430                       (Unspecified)
system.caches.m_latencyHistSeqr::gmean       1.433315                       (Unspecified)
system.caches.m_latencyHistSeqr::stdev     315.294708                       (Unspecified)
system.caches.m_latencyHistSeqr          |   108672636     97.94%     97.94% |     1442024      1.30%     99.24% |      650155      0.59%     99.82% |      164863      0.15%     99.97% |       28393      0.03%    100.00% |        2543      0.00%    100.00% |          59      0.00%    100.00% |           0      0.00%    100.00% |           0      0.00%    100.00% |           0      0.00%    100.00% (Unspecified)
system.caches.m_latencyHistSeqr::total      110960673                       (Unspecified)
system.caches.m_hitLatencyHistSeqr::bucket_size          512                       (Unspecified)
system.caches.m_hitLatencyHistSeqr::max_bucket         5119                       (Unspecified)
system.caches.m_hitLatencyHistSeqr::samples    105259287                       (Unspecified)
system.caches.m_hitLatencyHistSeqr::mean     1.015104                       (Unspecified)
system.caches.m_hitLatencyHistSeqr::gmean     1.007430                       (Unspecified)
system.caches.m_hitLatencyHistSeqr::stdev     2.349245                       (Unspecified)
system.caches.m_hitLatencyHistSeqr       |   105258888    100.00%    100.00% |         273      0.00%    100.00% |          70      0.00%    100.00% |          25      0.00%    100.00% |          15      0.00%    100.00% |           8      0.00%    100.00% |           5      0.00%    100.00% |           3      0.00%    100.00% |           0      0.00%    100.00% |           0      0.00%    100.00% (Unspecified)
system.caches.m_hitLatencyHistSeqr::total    105259287                       (Unspecified)
system.caches.m_missLatencyHistSeqr::bucket_size         1024                       (Unspecified)
system.caches.m_missLatencyHistSeqr::max_bucket        10239                       (Unspecified)
system.caches.m_missLatencyHistSeqr::samples      5701386                       (Unspecified)
system.caches.m_missLatencyHistSeqr::mean  1175.731469                       (Unspecified)
system.caches.m_missLatencyHistSeqr::gmean   962.440986                       (Unspecified)
system.caches.m_missLatencyHistSeqr::stdev   790.937440                       (Unspecified)
system.caches.m_missLatencyHistSeqr      |     3413475     59.87%     59.87% |     1441929     25.29%     85.16% |      650132     11.40%     96.56% |      164855      2.89%     99.46% |       28393      0.50%     99.95% |        2543      0.04%    100.00% |          59      0.00%    100.00% |           0      0.00%    100.00% |           0      0.00%    100.00% |           0      0.00%    100.00% (Unspecified)
system.caches.m_missLatencyHistSeqr::total      5701386                       (Unspecified)
system.caches.delayVCHist.vnet_0::bucket_size            8                       # delay histogram for vnet_0 (Unspecified)
system.caches.delayVCHist.vnet_0::max_bucket           79                       # delay histogram for vnet_0 (Unspecified)
system.caches.delayVCHist.vnet_0::samples     16835404                       # delay histogram for vnet_0 (Unspecified)
system.caches.delayVCHist.vnet_0::mean       0.543707                       # delay histogram for vnet_0 (Unspecified)
system.caches.delayVCHist.vnet_0::stdev      2.043797                       # delay histogram for vnet_0 (Unspecified)
system.caches.delayVCHist.vnet_0         |    15786276     93.77%     93.77% |     1043207      6.20%     99.96% |        5760      0.03%    100.00% |          96      0.00%    100.00% |          14      0.00%    100.00% |           9      0.00%    100.00% |           4      0.00%    100.00% |          28      0.00%    100.00% |          10      0.00%    100.00% |           0      0.00%    100.00% # delay histogram for vnet_0 (Unspecified)
system.caches.delayVCHist.vnet_0::total      16835404                       # delay histogram for vnet_0 (Unspecified)
system.caches.delayVCHist.vnet_1::bucket_size            8                       # delay histogram for vnet_1 (Unspecified)
system.caches.delayVCHist.vnet_1::max_bucket           79                       # delay histogram for vnet_1 (Unspecified)
system.caches.delayVCHist.vnet_1::samples     22523867                       # delay histogram for vnet_1 (Unspecified)
system.caches.delayVCHist.vnet_1::mean       0.011647                       # delay histogram for vnet_1 (Unspecified)
system.caches.delayVCHist.vnet_1::stdev      0.253519                       # delay histogram for vnet_1 (Unspecified)
system.caches.delayVCHist.vnet_1         |    22521438     99.99%     99.99% |        2134      0.01%    100.00% |         251      0.00%    100.00% |          35      0.00%    100.00% |           8      0.00%    100.00% |           1      0.00%    100.00% |           0      0.00%    100.00% |           0      0.00%    100.00% |           0      0.00%    100.00% |           0      0.00%    100.00% # delay histogram for vnet_1 (Unspecified)
system.caches.delayVCHist.vnet_1::total      22523867                       # delay histogram for vnet_1 (Unspecified)
system.caches.delayVCHist.vnet_2::bucket_size            1                       # delay histogram for vnet_2 (Unspecified)
system.caches.delayVCHist.vnet_2::max_bucket            9                       # delay histogram for vnet_2 (Unspecified)
system.caches.delayVCHist.vnet_2::samples       162482                       # delay histogram for vnet_2 (Unspecified)
system.caches.delayVCHist.vnet_2::mean       0.000074                       # delay histogram for vnet_2 (Unspecified)
system.caches.delayVCHist.vnet_2::stdev      0.012153                       # delay histogram for vnet_2 (Unspecified)
system.caches.delayVCHist.vnet_2         |      162476    100.00%    100.00% |           0      0.00%    100.00% |           6      0.00%    100.00% |           0      0.00%    100.00% |           0      0.00%    100.00% |           0      0.00%    100.00% |           0      0.00%    100.00% |           0      0.00%    100.00% |           0      0.00%    100.00% |           0      0.00%    100.00% # delay histogram for vnet_2 (Unspecified)
system.caches.delayVCHist.vnet_2::total        162482                       # delay histogram for vnet_2 (Unspecified)
system.caches.L1Cache_Controller.Load    |     8000317     12.36%     12.36% |     7910878     12.22%     24.58% |     8108507     12.53%     37.11% |     8300748     12.83%     49.94% |     8030273     12.41%     62.35% |     8126831     12.56%     74.90% |     8202648     12.67%     87.58% |     8040194     12.42%    100.00% (Unspecified)
system.caches.L1Cache_Controller.Load::total     64720396                       (Unspecified)
system.caches.L1Cache_Controller.Ifetch  |     2315875     12.41%     12.41% |     2265890     12.14%     24.55% |     2337316     12.52%     37.07% |     2382208     12.76%     49.83% |     2319167     12.43%     62.26% |     2355486     12.62%     74.88% |     2364450     12.67%     87.55% |     2323958     12.45%    100.00% (Unspecified)
system.caches.L1Cache_Controller.Ifetch::total     18664350                       (Unspecified)
system.caches.L1Cache_Controller.Store   |     3423117     12.41%     12.41% |     3348643     12.14%     24.56% |     3454922     12.53%     37.09% |     3519275     12.76%     49.85% |     3425598     12.42%     62.27% |     3479602     12.62%     74.89% |     3492449     12.66%     87.55% |     3432335     12.45%    100.00% (Unspecified)
system.caches.L1Cache_Controller.Store::total     27575941                       (Unspecified)
system.caches.L1Cache_Controller.Inv     |       36786     22.80%     22.80% |       19285     11.95%     34.75% |       17352     10.75%     45.50% |       17637     10.93%     56.43% |       15084      9.35%     65.78% |       11898      7.37%     73.16% |       30216     18.73%     91.88% |       13098      8.12%    100.00% (Unspecified)
system.caches.L1Cache_Controller.Inv::total       161356                       (Unspecified)
system.caches.L1Cache_Controller.L1_Replacement |      696938     12.51%     12.51% |      675179     12.12%     24.63% |      697485     12.52%     37.15% |      710629     12.75%     49.90% |      691048     12.40%     62.30% |      702613     12.61%     74.91% |      705150     12.66%     87.57% |      692513     12.43%    100.00% (Unspecified)
system.caches.L1Cache_Controller.L1_Replacement::total      5571555                       (Unspecified)
system.caches.L1Cache_Controller.Fwd_GETS |         743     65.99%     65.99% |         177     15.72%     81.71% |          82      7.28%     88.99% |          38      3.37%     92.36% |          36      3.20%     95.56% |           9      0.80%     96.36% |          19      1.69%     98.05% |          22      1.95%    100.00% (Unspecified)
system.caches.L1Cache_Controller.Fwd_GETS::total         1126                       (Unspecified)
system.caches.L1Cache_Controller.Data    |          10    100.00%    100.00% |           0      0.00%    100.00% |           0      0.00%    100.00% |           0      0.00%    100.00% |           0      0.00%    100.00% |           0      0.00%    100.00% |           0      0.00%    100.00% |           0      0.00%    100.00% (Unspecified)
system.caches.L1Cache_Controller.Data::total           10                       (Unspecified)
system.caches.L1Cache_Controller.Data_Exclusive |      559417     12.38%     12.38% |      548956     12.15%     24.53% |      566613     12.54%     37.06% |      576956     12.77%     49.83% |      561288     12.42%     62.25% |      570756     12.63%     74.88% |      572686     12.67%     87.55% |      562421     12.45%    100.00% (Unspecified)
system.caches.L1Cache_Controller.Data_Exclusive::total      4519093                       (Unspecified)
system.caches.L1Cache_Controller.DataS_fromL1 |         112      9.95%      9.95% |         420     37.30%     47.25% |         268     23.80%     71.05% |         155     13.77%     84.81% |          50      4.44%     89.25% |          50      4.44%     93.69% |          40      3.55%     97.25% |          31      2.75%    100.00% (Unspecified)
system.caches.L1Cache_Controller.DataS_fromL1::total         1126                       (Unspecified)
system.caches.L1Cache_Controller.Data_all_Acks |      146679     12.42%     12.42% |      142992     12.11%     24.53% |      147790     12.52%     37.05% |      150657     12.76%     49.81% |      146904     12.44%     62.25% |      149033     12.62%     74.87% |      149508     12.66%     87.54% |      147171     12.46%    100.00% (Unspecified)
system.caches.L1Cache_Controller.Data_all_Acks::total      1180734                       (Unspecified)
system.caches.L1Cache_Controller.Ack     |        2260    100.00%    100.00% |           0      0.00%    100.00% |           0      0.00%    100.00% |           0      0.00%    100.00% |           0      0.00%    100.00% |           0      0.00%    100.00% |           0      0.00%    100.00% |           0      0.00%    100.00% (Unspecified)
system.caches.L1Cache_Controller.Ack::total         2260                       (Unspecified)
system.caches.L1Cache_Controller.Ack_all |         433    100.00%    100.00% |           0      0.00%    100.00% |           0      0.00%    100.00% |           0      0.00%    100.00% |           0      0.00%    100.00% |           0      0.00%    100.00% |           0      0.00%    100.00% |           0      0.00%    100.00% (Unspecified)
system.caches.L1Cache_Controller.Ack_all::total          433                       (Unspecified)
system.caches.L1Cache_Controller.WB_Ack  |      668185     12.20%     12.20% |      664298     12.13%     24.34% |      688286     12.57%     36.91% |      701046     12.80%     49.71% |      684167     12.50%     62.21% |      698823     12.76%     74.97% |      683016     12.47%     87.44% |      687474     12.56%    100.00% (Unspecified)
system.caches.L1Cache_Controller.WB_Ack::total      5475295                       (Unspecified)
system.caches.L1Cache_Controller.NP.Load |      557352     12.37%     12.37% |      547140     12.15%     24.52% |      564841     12.54%     37.06% |      575282     12.77%     49.83% |      559541     12.42%     62.25% |      568948     12.63%     74.88% |      570945     12.67%     87.55% |      560770     12.45%    100.00% (Unspecified)
system.caches.L1Cache_Controller.NP.Load::total      4504819                       (Unspecified)
system.caches.L1Cache_Controller.NP.Ifetch |        1092     23.38%     23.38% |         293      6.27%     29.65% |         528     11.30%     40.95% |         553     11.84%     52.79% |         547     11.71%     64.50% |         551     11.80%     76.30% |         551     11.80%     88.10% |         556     11.90%    100.00% (Unspecified)
system.caches.L1Cache_Controller.NP.Ifetch::total         4671                       (Unspecified)
system.caches.L1Cache_Controller.NP.Store |      138732     12.36%     12.36% |      136314     12.15%     24.51% |      140670     12.54%     37.05% |      143333     12.77%     49.83% |      139436     12.43%     62.25% |      141630     12.62%     74.88% |      142156     12.67%     87.55% |      139712     12.45%    100.00% (Unspecified)
system.caches.L1Cache_Controller.NP.Store::total      1121983                       (Unspecified)
system.caches.L1Cache_Controller.NP.Inv  |          50      6.57%      6.57% |         105     13.80%     20.37% |          76      9.99%     30.35% |         104     13.67%     44.02% |          94     12.35%     56.37% |         112     14.72%     71.09% |         105     13.80%     84.89% |         115     15.11%    100.00% (Unspecified)
system.caches.L1Cache_Controller.NP.Inv::total          761                       (Unspecified)
system.caches.L1Cache_Controller.I.Load  |        3136     12.04%     12.04% |        3260     12.52%     24.55% |        3249     12.47%     37.03% |        3224     12.38%     49.40% |        3297     12.66%     62.06% |        3455     13.26%     75.33% |        3237     12.43%     87.75% |        3190     12.25%    100.00% (Unspecified)
system.caches.L1Cache_Controller.I.Load::total        26048                       (Unspecified)
system.caches.L1Cache_Controller.I.Ifetch |        3953     14.44%     14.44% |        3347     12.23%     26.67% |        3313     12.10%     38.78% |        3345     12.22%     51.00% |        3348     12.23%     63.23% |        3354     12.25%     75.49% |        3355     12.26%     87.75% |        3354     12.25%    100.00% (Unspecified)
system.caches.L1Cache_Controller.I.Ifetch::total        27369                       (Unspecified)
system.caches.L1Cache_Controller.I.Store |        1954     12.15%     12.15% |        2017     12.54%     24.68% |        2072     12.88%     37.56% |        2031     12.63%     50.19% |        2074     12.89%     63.08% |        1904     11.84%     74.92% |        1991     12.38%     87.29% |        2044     12.71%    100.00% (Unspecified)
system.caches.L1Cache_Controller.I.Store::total        16087                       (Unspecified)
system.caches.L1Cache_Controller.I.L1_Replacement |       27353     30.94%     30.94% |       10147     11.48%     42.41% |        8298      9.39%     51.80% |        8634      9.77%     61.56% |        5922      6.70%     68.26% |        2756      3.12%     71.38% |       21236     24.02%     95.40% |        4070      4.60%    100.00% (Unspecified)
system.caches.L1Cache_Controller.I.L1_Replacement::total        88416                       (Unspecified)
system.caches.L1Cache_Controller.S.Load  |       36949     11.26%     11.26% |       46314     14.12%     25.38% |       43379     13.22%     38.60% |       43479     13.25%     51.85% |       39475     12.03%     63.89% |       40526     12.35%     76.24% |       39323     11.99%     88.23% |       38627     11.77%    100.00% (Unspecified)
system.caches.L1Cache_Controller.S.Load::total       328072                       (Unspecified)
system.caches.L1Cache_Controller.S.Ifetch |     2310830     12.40%     12.40% |     2262250     12.14%     24.54% |     2333475     12.52%     37.07% |     2378310     12.76%     49.83% |     2315272     12.43%     62.26% |     2351581     12.62%     74.88% |     2360544     12.67%     87.55% |     2320048     12.45%    100.00% (Unspecified)
system.caches.L1Cache_Controller.S.Ifetch::total     18632310                       (Unspecified)
system.caches.L1Cache_Controller.S.Store |         423    100.00%    100.00% |           0      0.00%    100.00% |           0      0.00%    100.00% |           0      0.00%    100.00% |           0      0.00%    100.00% |           0      0.00%    100.00% |           0      0.00%    100.00% |           0      0.00%    100.00% (Unspecified)
system.caches.L1Cache_Controller.S.Store::total          423                       (Unspecified)
system.caches.L1Cache_Controller.S.Inv   |        4858     13.33%     13.33% |        4539     12.45%     25.78% |        4483     12.30%     38.07% |        4533     12.43%     50.51% |        4521     12.40%     62.91% |        4511     12.37%     75.28% |        4514     12.38%     87.66% |        4498     12.34%    100.00% (Unspecified)
system.caches.L1Cache_Controller.S.Inv::total        36457                       (Unspecified)
system.caches.L1Cache_Controller.S.L1_Replacement |        1400     17.85%     17.85% |         734      9.36%     27.21% |         901     11.49%     38.69% |         949     12.10%     50.79% |         959     12.23%     63.02% |        1034     13.18%     76.20% |         898     11.45%     87.65% |         969     12.35%    100.00% (Unspecified)
system.caches.L1Cache_Controller.S.L1_Replacement::total         7844                       (Unspecified)
system.caches.L1Cache_Controller.E.Load  |     4976498     12.34%     12.34% |     4942008     12.25%     24.59% |     5047593     12.51%     37.11% |     5187307     12.86%     49.97% |     5004655     12.41%     62.38% |     5049603     12.52%     74.90% |     5114256     12.68%     87.58% |     5010965     12.42%    100.00% (Unspecified)
system.caches.L1Cache_Controller.E.Load::total     40332885                       (Unspecified)
system.caches.L1Cache_Controller.E.Store |        1760     14.68%     14.68% |        1481     12.35%     27.02% |        1389     11.58%     38.61% |        1447     12.07%     50.67% |        1382     11.52%     62.19% |        1597     13.32%     75.51% |        1497     12.48%     87.99% |        1440     12.01%    100.00% (Unspecified)
system.caches.L1Cache_Controller.E.Store::total        11993                       (Unspecified)
system.caches.L1Cache_Controller.E.Inv   |       27077     30.38%     30.38% |       10437     11.71%     42.09% |        8424      9.45%     51.54% |        7762      8.71%     60.25% |        5619      6.30%     66.55% |        3371      3.78%     70.33% |       21915     24.59%     94.92% |        4531      5.08%    100.00% (Unspecified)
system.caches.L1Cache_Controller.E.Inv::total        89136                       (Unspecified)
system.caches.L1Cache_Controller.E.L1_Replacement |      517598     11.87%     11.87% |      530445     12.17%     24.04% |      550239     12.62%     36.66% |      561259     12.87%     49.53% |      547901     12.57%     62.10% |      559406     12.83%     74.93% |      542794     12.45%     87.38% |      550036     12.62%    100.00% (Unspecified)
system.caches.L1Cache_Controller.E.L1_Replacement::total      4359678                       (Unspecified)
system.caches.L1Cache_Controller.E.Fwd_GETS |         310     44.73%     44.73% |         177     25.54%     70.27% |          82     11.83%     82.11% |          38      5.48%     87.59% |          36      5.19%     92.78% |           9      1.30%     94.08% |          19      2.74%     96.83% |          22      3.17%    100.00% (Unspecified)
system.caches.L1Cache_Controller.E.Fwd_GETS::total          693                       (Unspecified)
system.caches.L1Cache_Controller.M.Load  |     2426382     12.42%     12.42% |     2372156     12.15%     24.57% |     2449445     12.54%     37.11% |     2491456     12.76%     49.87% |     2423305     12.41%     62.28% |     2464299     12.62%     74.90% |     2474887     12.67%     87.57% |     2426642     12.43%    100.00% (Unspecified)
system.caches.L1Cache_Controller.M.Load::total     19528572                       (Unspecified)
system.caches.L1Cache_Controller.M.Store |     3280248     12.41%     12.41% |     3208831     12.14%     24.56% |     3310791     12.53%     37.08% |     3372464     12.76%     49.85% |     3282706     12.42%     62.27% |     3334471     12.62%     74.89% |     3346805     12.67%     87.55% |     3289139     12.45%    100.00% (Unspecified)
system.caches.L1Cache_Controller.M.Store::total     26425455                       (Unspecified)
system.caches.L1Cache_Controller.M.Inv   |        4801     13.73%     13.73% |        4202     12.02%     25.74% |        4358     12.46%     38.20% |        5231     14.96%     53.16% |        4848     13.86%     67.03% |        3900     11.15%     78.18% |        3680     10.52%     88.70% |        3952     11.30%    100.00% (Unspecified)
system.caches.L1Cache_Controller.M.Inv::total        34972                       (Unspecified)
system.caches.L1Cache_Controller.M.L1_Replacement |      150587     13.50%     13.50% |      133853     12.00%     25.50% |      138047     12.37%     37.87% |      139787     12.53%     50.40% |      136266     12.21%     62.61% |      139417     12.50%     75.11% |      140222     12.57%     87.68% |      137438     12.32%    100.00% (Unspecified)
system.caches.L1Cache_Controller.M.L1_Replacement::total      1115617                       (Unspecified)
system.caches.L1Cache_Controller.M.Fwd_GETS |         433    100.00%    100.00% |           0      0.00%    100.00% |           0      0.00%    100.00% |           0      0.00%    100.00% |           0      0.00%    100.00% |           0      0.00%    100.00% |           0      0.00%    100.00% |           0      0.00%    100.00% (Unspecified)
system.caches.L1Cache_Controller.M.Fwd_GETS::total          433                       (Unspecified)
system.caches.L1Cache_Controller.IS.Inv  |           0      0.00%      0.00% |           2      6.67%      6.67% |          11     36.67%     43.33% |           7     23.33%     66.67% |           2      6.67%     73.33% |           4     13.33%     86.67% |           2      6.67%     93.33% |           2      6.67%    100.00% (Unspecified)
system.caches.L1Cache_Controller.IS.Inv::total           30                       (Unspecified)
system.caches.L1Cache_Controller.IS.Data_Exclusive |      559417     12.38%     12.38% |      548956     12.15%     24.53% |      566613     12.54%     37.06% |      576956     12.77%     49.83% |      561288     12.42%     62.25% |      570756     12.63%     74.88% |      572686     12.67%     87.55% |      562421     12.45%    100.00% (Unspecified)
system.caches.L1Cache_Controller.IS.Data_Exclusive::total      4519093                       (Unspecified)
system.caches.L1Cache_Controller.IS.DataS_fromL1 |         112      9.95%      9.95% |         420     37.30%     47.25% |         268     23.80%     71.05% |         155     13.77%     84.81% |          50      4.44%     89.25% |          50      4.44%     93.69% |          40      3.55%     97.25% |          31      2.75%    100.00% (Unspecified)
system.caches.L1Cache_Controller.IS.DataS_fromL1::total         1126                       (Unspecified)
system.caches.L1Cache_Controller.IS.Data_all_Acks |        6004     14.08%     14.08% |        4659     10.92%     25.00% |        5038     11.81%     36.82% |        5286     12.39%     49.21% |        5392     12.64%     61.85% |        5495     12.88%     74.74% |        5360     12.57%     87.31% |        5413     12.69%    100.00% (Unspecified)
system.caches.L1Cache_Controller.IS.Data_all_Acks::total        42647                       (Unspecified)
system.caches.L1Cache_Controller.IM.Data |          10    100.00%    100.00% |           0      0.00%    100.00% |           0      0.00%    100.00% |           0      0.00%    100.00% |           0      0.00%    100.00% |           0      0.00%    100.00% |           0      0.00%    100.00% |           0      0.00%    100.00% (Unspecified)
system.caches.L1Cache_Controller.IM.Data::total           10                       (Unspecified)
system.caches.L1Cache_Controller.IM.Data_all_Acks |      140675     12.36%     12.36% |      138331     12.16%     24.52% |      142741     12.54%     37.06% |      145364     12.77%     49.83% |      141510     12.43%     62.27% |      143534     12.61%     74.88% |      144146     12.67%     87.54% |      141756     12.46%    100.00% (Unspecified)
system.caches.L1Cache_Controller.IM.Data_all_Acks::total      1138057                       (Unspecified)
system.caches.L1Cache_Controller.SM.Ack  |        2260    100.00%    100.00% |           0      0.00%    100.00% |           0      0.00%    100.00% |           0      0.00%    100.00% |           0      0.00%    100.00% |           0      0.00%    100.00% |           0      0.00%    100.00% |           0      0.00%    100.00% (Unspecified)
system.caches.L1Cache_Controller.SM.Ack::total         2260                       (Unspecified)
system.caches.L1Cache_Controller.SM.Ack_all |         433    100.00%    100.00% |           0      0.00%    100.00% |           0      0.00%    100.00% |           0      0.00%    100.00% |           0      0.00%    100.00% |           0      0.00%    100.00% |           0      0.00%    100.00% |           0      0.00%    100.00% (Unspecified)
system.caches.L1Cache_Controller.SM.Ack_all::total          433                       (Unspecified)
system.caches.L1Cache_Controller.IS_I.Data_all_Acks |           0      0.00%      0.00% |           2      6.67%      6.67% |          11     36.67%     43.33% |           7     23.33%     66.67% |           2      6.67%     73.33% |           4     13.33%     86.67% |           2      6.67%     93.33% |           2      6.67%    100.00% (Unspecified)
system.caches.L1Cache_Controller.IS_I.Data_all_Acks::total           30                       (Unspecified)
system.caches.L1Cache_Controller.M_I.WB_Ack |      668185     12.20%     12.20% |      664298     12.13%     24.34% |      688286     12.57%     36.91% |      701046     12.80%     49.71% |      684167     12.50%     62.21% |      698823     12.76%     74.97% |      683016     12.47%     87.44% |      687474     12.56%    100.00% (Unspecified)
system.caches.L1Cache_Controller.M_I.WB_Ack::total      5475295                       (Unspecified)
system.caches.Directory_Controller.Fetch |        4504      0.08%      0.08% |     5653391     99.92%    100.00% (Unspecified)
system.caches.Directory_Controller.Fetch::total      5657895                       (Unspecified)
system.caches.Directory_Controller.Data  |         275      0.02%      0.02% |     1177110     99.98%    100.00% (Unspecified)
system.caches.Directory_Controller.Data::total      1177385                       (Unspecified)
system.caches.Directory_Controller.Memory_Data |        4504      0.08%      0.08% |     5653377     99.92%    100.00% (Unspecified)
system.caches.Directory_Controller.Memory_Data::total      5657881                       (Unspecified)
system.caches.Directory_Controller.Memory_Ack |         275      0.02%      0.02% |     1177110     99.98%    100.00% (Unspecified)
system.caches.Directory_Controller.Memory_Ack::total      1177385                       (Unspecified)
system.caches.Directory_Controller.CleanReplacement |        4229      0.10%      0.10% |     4345209     99.90%    100.00% (Unspecified)
system.caches.Directory_Controller.CleanReplacement::total      4349438                       (Unspecified)
system.caches.Directory_Controller.I.Fetch |        4504      0.08%      0.08% |     5653391     99.92%    100.00% (Unspecified)
system.caches.Directory_Controller.I.Fetch::total      5657895                       (Unspecified)
system.caches.Directory_Controller.M.Data |         275      0.02%      0.02% |     1177110     99.98%    100.00% (Unspecified)
system.caches.Directory_Controller.M.Data::total      1177385                       (Unspecified)
system.caches.Directory_Controller.M.CleanReplacement |        4229      0.10%      0.10% |     4345209     99.90%    100.00% (Unspecified)
system.caches.Directory_Controller.M.CleanReplacement::total      4349438                       (Unspecified)
system.caches.Directory_Controller.IM.Memory_Data |        4504      0.08%      0.08% |     5653377     99.92%    100.00% (Unspecified)
system.caches.Directory_Controller.IM.Memory_Data::total      5657881                       (Unspecified)
system.caches.Directory_Controller.MI.Memory_Ack |         275      0.02%      0.02% |     1177110     99.98%    100.00% (Unspecified)
system.caches.Directory_Controller.MI.Memory_Ack::total      1177385                       (Unspecified)
system.caches.L2Cache_Controller.L1_GET_INSTR |        3844     11.99%     11.99% |        5616     17.51%     29.50% |        3678     11.47%     40.97% |        2880      8.98%     49.95% |        3895     12.15%     62.10% |        3843     11.99%     74.09% |        3546     11.06%     85.15% |        4763     14.85%    100.00% (Unspecified)
system.caches.L2Cache_Controller.L1_GET_INSTR::total        32065                       (Unspecified)
system.caches.L2Cache_Controller.L1_GETS |      568236     12.54%     12.54% |      567231     12.52%     25.06% |      566100     12.49%     37.55% |      565707     12.48%     50.04% |      565811     12.49%     62.52% |      565439     12.48%     75.00% |      566216     12.50%     87.50% |      566436     12.50%    100.00% (Unspecified)
system.caches.L2Cache_Controller.L1_GETS::total      4531176                       (Unspecified)
system.caches.L2Cache_Controller.L1_GETX |      142571     12.53%     12.53% |      142357     12.51%     25.03% |      141744     12.45%     37.49% |      142079     12.48%     49.97% |      142031     12.48%     62.45% |      142548     12.52%     74.98% |      142332     12.51%     87.48% |      142457     12.52%    100.00% (Unspecified)
system.caches.L2Cache_Controller.L1_GETX::total      1138119                       (Unspecified)
system.caches.L2Cache_Controller.L1_UPGRADE |         156     33.12%     33.12% |          79     16.77%     49.89% |           0      0.00%     49.89% |           0      0.00%     49.89% |           1      0.21%     50.11% |           0      0.00%     50.11% |         235     49.89%    100.00% |           0      0.00%    100.00% (Unspecified)
system.caches.L2Cache_Controller.L1_UPGRADE::total          471                       (Unspecified)
system.caches.L2Cache_Controller.L1_PUTX |      684573     12.50%     12.50% |      684551     12.50%     25.01% |      684237     12.50%     37.50% |      684290     12.50%     50.00% |      684422     12.50%     62.50% |      684299     12.50%     75.00% |      684445     12.50%     87.50% |      684478     12.50%    100.00% (Unspecified)
system.caches.L2Cache_Controller.L1_PUTX::total      5475295                       (Unspecified)
system.caches.L2Cache_Controller.L2_Replacement |      143090     12.52%     12.52% |      142909     12.50%     25.02% |      142814     12.49%     37.51% |      142851     12.50%     50.00% |      142818     12.49%     62.50% |      142886     12.50%     75.00% |      142868     12.50%     87.49% |      142992     12.51%    100.00% (Unspecified)
system.caches.L2Cache_Controller.L2_Replacement::total      1143228                       (Unspecified)
system.caches.L2Cache_Controller.L2_Replacement_clean |      548123     12.50%     12.50% |      548273     12.51%     25.01% |      547411     12.49%     37.50% |      547680     12.49%     49.99% |      547891     12.50%     62.49% |      548197     12.51%     75.00% |      547865     12.50%     87.50% |      548155     12.50%    100.00% (Unspecified)
system.caches.L2Cache_Controller.L2_Replacement_clean::total      4383595                       (Unspecified)
system.caches.L2Cache_Controller.Mem_Data |      707594     12.51%     12.51% |      707563     12.51%     25.01% |      706608     12.49%     37.50% |      706911     12.49%     50.00% |      707093     12.50%     62.49% |      707466     12.50%     75.00% |      707117     12.50%     87.49% |      707529     12.51%    100.00% (Unspecified)
system.caches.L2Cache_Controller.Mem_Data::total      5657881                       (Unspecified)
system.caches.L2Cache_Controller.Mem_Ack |      691213     12.51%     12.51% |      691182     12.51%     25.01% |      690225     12.49%     37.50% |      690531     12.49%     50.00% |      690709     12.50%     62.49% |      691083     12.50%     75.00% |      690733     12.50%     87.49% |      691147     12.51%    100.00% (Unspecified)
system.caches.L2Cache_Controller.Mem_Ack::total      5526823                       (Unspecified)
system.caches.L2Cache_Controller.WB_Data |        4676     13.21%     13.21% |        4459     12.59%     25.80% |        3754     10.60%     36.40% |        4200     11.86%     48.27% |        4038     11.41%     59.67% |        4774     13.48%     73.16% |        4642     13.11%     86.27% |        4862     13.73%    100.00% (Unspecified)
system.caches.L2Cache_Controller.WB_Data::total        35405                       (Unspecified)
system.caches.L2Cache_Controller.WB_Data_clean |         156     22.51%     22.51% |         108     15.58%     38.10% |         114     16.45%     54.55% |          84     12.12%     66.67% |          69      9.96%     76.62% |          21      3.03%     79.65% |          40      5.77%     85.43% |         101     14.57%    100.00% (Unspecified)
system.caches.L2Cache_Controller.WB_Data_clean::total          693                       (Unspecified)
system.caches.L2Cache_Controller.Ack     |        4749     15.84%     15.84% |        4043     13.48%     29.32% |        3881     12.94%     42.27% |        3062     10.21%     52.48% |        3866     12.89%     65.37% |        3519     11.74%     77.11% |        3330     11.11%     88.21% |        3534     11.79%    100.00% (Unspecified)
system.caches.L2Cache_Controller.Ack::total        29984                       (Unspecified)
system.caches.L2Cache_Controller.Ack_all |       11894     12.64%     12.64% |       12187     12.95%     25.58% |       11737     12.47%     38.05% |       11641     12.37%     50.42% |       11977     12.72%     63.14% |       11622     12.35%     75.49% |       11561     12.28%     87.77% |       11511     12.23%    100.00% (Unspecified)
system.caches.L2Cache_Controller.Ack_all::total        94130                       (Unspecified)
system.caches.L2Cache_Controller.Unblock |         318     28.24%     28.24% |         187     16.61%     44.85% |         114     10.12%     54.97% |          84      7.46%     62.43% |          70      6.22%     68.65% |          21      1.87%     70.52% |         231     20.52%     91.03% |         101      8.97%    100.00% (Unspecified)
system.caches.L2Cache_Controller.Unblock::total         1126                       (Unspecified)
system.caches.L2Cache_Controller.Exclusive_Unblock |      707644     12.51%     12.51% |      707753     12.51%     25.02% |      706331     12.48%     37.50% |      706830     12.49%     50.00% |      706998     12.50%     62.49% |      707283     12.50%     74.99% |      707290     12.50%     87.50% |      707454     12.50%    100.00% (Unspecified)
system.caches.L2Cache_Controller.Exclusive_Unblock::total      5657583                       (Unspecified)
system.caches.L2Cache_Controller.NP.L1_GET_INSTR |         558     13.70%     13.70% |         537     13.18%     26.88% |         493     12.10%     38.99% |         424     10.41%     49.40% |         545     13.38%     62.78% |         529     12.99%     75.77% |         495     12.15%     87.92% |         492     12.08%    100.00% (Unspecified)
system.caches.L2Cache_Controller.NP.L1_GET_INSTR::total         4073                       (Unspecified)
system.caches.L2Cache_Controller.NP.L1_GETS |      564729     12.50%     12.50% |      564796     12.51%     25.01% |      564395     12.50%     37.51% |      564463     12.50%     50.00% |      564564     12.50%     62.50% |      564489     12.50%     75.00% |      564348     12.50%     87.50% |      564711     12.50%    100.00% (Unspecified)
system.caches.L2Cache_Controller.NP.L1_GETS::total      4516495                       (Unspecified)
system.caches.L2Cache_Controller.NP.L1_GETX |      142310     12.51%     12.51% |      142233     12.51%     25.02% |      141721     12.46%     37.48% |      142028     12.49%     49.97% |      141984     12.48%     62.45% |      142449     12.52%     74.98% |      142274     12.51%     87.49% |      142328     12.51%    100.00% (Unspecified)
system.caches.L2Cache_Controller.NP.L1_GETX::total      1137327                       (Unspecified)
system.caches.L2Cache_Controller.SS.L1_GET_INSTR |        2964     11.67%     11.67% |        4771     18.78%     30.45% |        2917     11.48%     41.94% |        2217      8.73%     50.67% |        2916     11.48%     62.15% |        2832     11.15%     73.30% |        2761     10.87%     84.17% |        4022     15.83%    100.00% (Unspecified)
system.caches.L2Cache_Controller.SS.L1_GET_INSTR::total        25400                       (Unspecified)
system.caches.L2Cache_Controller.SS.L1_GETS |        2792     27.86%     27.86% |        1634     16.30%     44.16% |        1282     12.79%     56.95% |         810      8.08%     65.03% |         709      7.07%     72.10% |         635      6.34%     78.44% |         943      9.41%     87.85% |        1218     12.15%    100.00% (Unspecified)
system.caches.L2Cache_Controller.SS.L1_GETS::total        10023                       (Unspecified)
system.caches.L2Cache_Controller.SS.L1_GETX |           6     60.00%     60.00% |           0      0.00%     60.00% |           0      0.00%     60.00% |           0      0.00%     60.00% |           0      0.00%     60.00% |           0      0.00%     60.00% |           4     40.00%    100.00% |           0      0.00%    100.00% (Unspecified)
system.caches.L2Cache_Controller.SS.L1_GETX::total           10                       (Unspecified)
system.caches.L2Cache_Controller.SS.L1_UPGRADE |         156     36.88%     36.88% |          79     18.68%     55.56% |           0      0.00%     55.56% |           0      0.00%     55.56% |           1      0.24%     55.79% |           0      0.00%     55.79% |         187     44.21%    100.00% |           0      0.00%    100.00% (Unspecified)
system.caches.L2Cache_Controller.SS.L1_UPGRADE::total          423                       (Unspecified)
system.caches.L2Cache_Controller.SS.L2_Replacement_clean |         771     15.44%     15.44% |         674     13.50%     28.93% |         649     13.00%     41.93% |         526     10.53%     52.46% |         638     12.78%     65.24% |         565     11.31%     76.55% |         539     10.79%     87.34% |         632     12.66%    100.00% (Unspecified)
system.caches.L2Cache_Controller.SS.L2_Replacement_clean::total         4994                       (Unspecified)
system.caches.L2Cache_Controller.M.L1_GET_INSTR |           0      0.00%      0.00% |           3     18.75%     18.75% |           3     18.75%     37.50% |           0      0.00%     37.50% |           2     12.50%     50.00% |           3     18.75%     68.75% |           3     18.75%     87.50% |           2     12.50%    100.00% (Unspecified)
system.caches.L2Cache_Controller.M.L1_GET_INSTR::total           16                       (Unspecified)
system.caches.L2Cache_Controller.M.L1_GETS |         254      8.94%      8.94% |         560     19.72%     28.66% |         239      8.42%     37.08% |         316     11.13%     48.20% |         436     15.35%     63.56% |         269      9.47%     73.03% |         434     15.28%     88.31% |         332     11.69%    100.00% (Unspecified)
system.caches.L2Cache_Controller.M.L1_GETS::total         2840                       (Unspecified)
system.caches.L2Cache_Controller.M.L1_GETX |         249     33.97%     33.97% |         118     16.10%     50.07% |          18      2.46%     52.52% |          47      6.41%     58.94% |          38      5.18%     64.12% |          93     12.69%     76.81% |          47      6.41%     83.22% |         123     16.78%    100.00% (Unspecified)
system.caches.L2Cache_Controller.M.L1_GETX::total          733                       (Unspecified)
system.caches.L2Cache_Controller.M.L2_Replacement |      142872     12.51%     12.51% |      142787     12.50%     25.00% |      142784     12.50%     37.50% |      142784     12.50%     50.00% |      142775     12.50%     62.50% |      142776     12.50%     75.00% |      142801     12.50%     87.50% |      142830     12.50%    100.00% (Unspecified)
system.caches.L2Cache_Controller.M.L2_Replacement::total      1142409                       (Unspecified)
system.caches.L2Cache_Controller.M.L2_Replacement_clean |      531933     12.50%     12.50% |      531828     12.50%     25.00% |      531950     12.50%     37.50% |      531906     12.50%     50.00% |      531920     12.50%     62.50% |      531911     12.50%     75.00% |      531920     12.50%     87.50% |      531944     12.50%    100.00% (Unspecified)
system.caches.L2Cache_Controller.M.L2_Replacement_clean::total      4255312                       (Unspecified)
system.caches.L2Cache_Controller.MT.L1_GETS |         318     28.24%     28.24% |         187     16.61%     44.85% |         114     10.12%     54.97% |          84      7.46%     62.43% |          70      6.22%     68.65% |          21      1.87%     70.52% |         231     20.52%     91.03% |         101      8.97%    100.00% (Unspecified)
system.caches.L2Cache_Controller.MT.L1_GETS::total         1126                       (Unspecified)
system.caches.L2Cache_Controller.MT.L1_PUTX |      684573     12.50%     12.50% |      684551     12.50%     25.01% |      684237     12.50%     37.50% |      684290     12.50%     50.00% |      684422     12.50%     62.50% |      684299     12.50%     75.00% |      684445     12.50%     87.50% |      684478     12.50%    100.00% (Unspecified)
system.caches.L2Cache_Controller.MT.L1_PUTX::total      5475295                       (Unspecified)
system.caches.L2Cache_Controller.MT.L2_Replacement |         218     26.62%     26.62% |         122     14.90%     41.51% |          30      3.66%     45.18% |          67      8.18%     53.36% |          43      5.25%     58.61% |         110     13.43%     72.04% |          67      8.18%     80.22% |         162     19.78%    100.00% (Unspecified)
system.caches.L2Cache_Controller.MT.L2_Replacement::total          819                       (Unspecified)
system.caches.L2Cache_Controller.MT.L2_Replacement_clean |       15419     12.51%     12.51% |       15771     12.79%     25.30% |       14812     12.01%     37.31% |       15248     12.37%     49.68% |       15333     12.44%     62.12% |       15721     12.75%     74.87% |       15406     12.50%     87.36% |       15579     12.64%    100.00% (Unspecified)
system.caches.L2Cache_Controller.MT.L2_Replacement_clean::total       123289                       (Unspecified)
system.caches.L2Cache_Controller.M_I.L1_GET_INSTR |           0      0.00%      0.00% |           0      0.00%      0.00% |           0      0.00%      0.00% |           0      0.00%      0.00% |          11     45.83%     45.83% |          13     54.17%    100.00% |           0      0.00%    100.00% |           0      0.00%    100.00% (Unspecified)
system.caches.L2Cache_Controller.M_I.L1_GET_INSTR::total           24                       (Unspecified)
system.caches.L2Cache_Controller.M_I.L1_GETS |           5     12.82%     12.82% |           2      5.13%     17.95% |           5     12.82%     30.77% |           3      7.69%     38.46% |           2      5.13%     43.59% |           2      5.13%     48.72% |           7     17.95%     66.67% |          13     33.33%    100.00% (Unspecified)
system.caches.L2Cache_Controller.M_I.L1_GETS::total           39                       (Unspecified)
system.caches.L2Cache_Controller.M_I.L1_GETX |           6     12.24%     12.24% |           6     12.24%     24.49% |           5     10.20%     34.69% |           4      8.16%     42.86% |           9     18.37%     61.22% |           6     12.24%     73.47% |           7     14.29%     87.76% |           6     12.24%    100.00% (Unspecified)
system.caches.L2Cache_Controller.M_I.L1_GETX::total           49                       (Unspecified)
system.caches.L2Cache_Controller.M_I.Mem_Ack |      691213     12.51%     12.51% |      691182     12.51%     25.01% |      690225     12.49%     37.50% |      690531     12.49%     50.00% |      690709     12.50%     62.49% |      691083     12.50%     75.00% |      690733     12.50%     87.49% |      691147     12.51%    100.00% (Unspecified)
system.caches.L2Cache_Controller.M_I.Mem_Ack::total      5526823                       (Unspecified)
system.caches.L2Cache_Controller.MT_I.WB_Data |         218     26.75%     26.75% |         122     14.97%     41.72% |          30      3.68%     45.40% |          66      8.10%     53.50% |          42      5.15%     58.65% |         109     13.37%     72.02% |          66      8.10%     80.12% |         162     19.88%    100.00% (Unspecified)
system.caches.L2Cache_Controller.MT_I.WB_Data::total          815                       (Unspecified)
system.caches.L2Cache_Controller.MT_I.Ack_all |           0      0.00%      0.00% |           0      0.00%      0.00% |           0      0.00%      0.00% |           1     25.00%     25.00% |           1     25.00%     50.00% |           1     25.00%     75.00% |           1     25.00%    100.00% |           0      0.00%    100.00% (Unspecified)
system.caches.L2Cache_Controller.MT_I.Ack_all::total            4                       (Unspecified)
system.caches.L2Cache_Controller.MCT_I.WB_Data |        4296     12.58%     12.58% |        4258     12.47%     25.04% |        3724     10.90%     35.95% |        4134     12.10%     48.05% |        3995     11.70%     59.74% |        4665     13.66%     73.40% |        4385     12.84%     86.24% |        4700     13.76%    100.00% (Unspecified)
system.caches.L2Cache_Controller.MCT_I.WB_Data::total        34157                       (Unspecified)
system.caches.L2Cache_Controller.MCT_I.Ack_all |       11123     12.48%     12.48% |       11513     12.92%     25.40% |       11088     12.44%     37.84% |       11114     12.47%     50.31% |       11338     12.72%     63.03% |       11056     12.40%     75.43% |       11021     12.36%     87.79% |       10879     12.21%    100.00% (Unspecified)
system.caches.L2Cache_Controller.MCT_I.Ack_all::total        89132                       (Unspecified)
system.caches.L2Cache_Controller.I_I.L1_GET_INSTR |           0      0.00%      0.00% |           0      0.00%      0.00% |           0      0.00%      0.00% |           0      0.00%      0.00% |           0      0.00%      0.00% |           1    100.00%    100.00% |           0      0.00%    100.00% |           0      0.00%    100.00% (Unspecified)
system.caches.L2Cache_Controller.I_I.L1_GET_INSTR::total            1                       (Unspecified)
system.caches.L2Cache_Controller.I_I.Ack |        4749     15.84%     15.84% |        4043     13.48%     29.32% |        3881     12.94%     42.27% |        3062     10.21%     52.48% |        3866     12.89%     65.37% |        3519     11.74%     77.11% |        3330     11.11%     88.21% |        3534     11.79%    100.00% (Unspecified)
system.caches.L2Cache_Controller.I_I.Ack::total        29984                       (Unspecified)
system.caches.L2Cache_Controller.I_I.Ack_all |         771     15.44%     15.44% |         674     13.50%     28.93% |         649     13.00%     41.93% |         526     10.53%     52.46% |         638     12.78%     65.24% |         565     11.31%     76.55% |         539     10.79%     87.34% |         632     12.66%    100.00% (Unspecified)
system.caches.L2Cache_Controller.I_I.Ack_all::total         4994                       (Unspecified)
system.caches.L2Cache_Controller.ISS.L1_GETS |          57     24.68%     24.68% |          30     12.99%     37.66% |          41     17.75%     55.41% |          20      8.66%     64.07% |          25     10.82%     74.89% |          16      6.93%     81.82% |           4      1.73%     83.55% |          38     16.45%    100.00% (Unspecified)
system.caches.L2Cache_Controller.ISS.L1_GETS::total          231                       (Unspecified)
system.caches.L2Cache_Controller.ISS.Mem_Data |      564669     12.50%     12.50% |      564764     12.51%     25.01% |      564353     12.50%     37.50% |      564440     12.50%     50.00% |      564539     12.50%     62.50% |      564473     12.50%     75.00% |      564344     12.50%     87.50% |      564671     12.50%    100.00% (Unspecified)
system.caches.L2Cache_Controller.ISS.Mem_Data::total      4516253                       (Unspecified)
system.caches.L2Cache_Controller.IS.L1_GET_INSTR |         322     12.62%     12.62% |         305     11.96%     24.58% |         265     10.39%     34.97% |         239      9.37%     44.34% |         421     16.50%     60.84% |         465     18.23%     79.07% |         287     11.25%     90.32% |         247      9.68%    100.00% (Unspecified)
system.caches.L2Cache_Controller.IS.L1_GET_INSTR::total         2551                       (Unspecified)
system.caches.L2Cache_Controller.IS.L1_GETS |          64     42.11%     42.11% |          19     12.50%     54.61% |          23     15.13%     69.74% |          10      6.58%     76.32% |           5      3.29%     79.61% |           7      4.61%     84.21% |           1      0.66%     84.87% |          23     15.13%    100.00% (Unspecified)
system.caches.L2Cache_Controller.IS.L1_GETS::total          152                       (Unspecified)
system.caches.L2Cache_Controller.IS.Mem_Data |         615     14.29%     14.29% |         567     13.17%     27.46% |         534     12.41%     39.87% |         444     10.32%     50.19% |         570     13.24%     63.43% |         545     12.66%     76.09% |         499     11.59%     87.69% |         530     12.31%    100.00% (Unspecified)
system.caches.L2Cache_Controller.IS.Mem_Data::total         4304                       (Unspecified)
system.caches.L2Cache_Controller.IM.Mem_Data |      142310     12.51%     12.51% |      142232     12.51%     25.02% |      141721     12.46%     37.48% |      142027     12.49%     49.97% |      141984     12.48%     62.45% |      142448     12.52%     74.98% |      142274     12.51%     87.49% |      142328     12.51%    100.00% (Unspecified)
system.caches.L2Cache_Controller.IM.Mem_Data::total      1137324                       (Unspecified)
system.caches.L2Cache_Controller.SS_MB.L1_GETS |           1      0.57%      0.57% |           0      0.00%      0.57% |           0      0.00%      0.57% |           0      0.00%      0.57% |           0      0.00%      0.57% |           0      0.00%      0.57% |         175     99.43%    100.00% |           0      0.00%    100.00% (Unspecified)
system.caches.L2Cache_Controller.SS_MB.L1_GETS::total          176                       (Unspecified)
system.caches.L2Cache_Controller.SS_MB.Exclusive_Unblock |         162     37.41%     37.41% |          79     18.24%     55.66% |           0      0.00%     55.66% |           0      0.00%     55.66% |           1      0.23%     55.89% |           0      0.00%     55.89% |         191     44.11%    100.00% |           0      0.00%    100.00% (Unspecified)
system.caches.L2Cache_Controller.SS_MB.Exclusive_Unblock::total          433                       (Unspecified)
system.caches.L2Cache_Controller.MT_MB.L1_GETS |           2    100.00%    100.00% |           0      0.00%    100.00% |           0      0.00%    100.00% |           0      0.00%    100.00% |           0      0.00%    100.00% |           0      0.00%    100.00% |           0      0.00%    100.00% |           0      0.00%    100.00% (Unspecified)
system.caches.L2Cache_Controller.MT_MB.L1_GETS::total            2                       (Unspecified)
system.caches.L2Cache_Controller.MT_MB.Exclusive_Unblock |      707482     12.51%     12.51% |      707674     12.51%     25.02% |      706331     12.49%     37.50% |      706830     12.49%     50.00% |      706997     12.50%     62.49% |      707283     12.50%     75.00% |      707099     12.50%     87.49% |      707454     12.51%    100.00% (Unspecified)
system.caches.L2Cache_Controller.MT_MB.Exclusive_Unblock::total      5657150                       (Unspecified)
system.caches.L2Cache_Controller.MT_IIB.L1_GETS |          14     15.38%     15.38% |           2      2.20%     17.58% |           1      1.10%     18.68% |           1      1.10%     19.78% |           0      0.00%     19.78% |           0      0.00%     19.78% |          73     80.22%    100.00% |           0      0.00%    100.00% (Unspecified)
system.caches.L2Cache_Controller.MT_IIB.L1_GETS::total           91                       (Unspecified)
system.caches.L2Cache_Controller.MT_IIB.WB_Data |         162     37.41%     37.41% |          79     18.24%     55.66% |           0      0.00%     55.66% |           0      0.00%     55.66% |           1      0.23%     55.89% |           0      0.00%     55.89% |         191     44.11%    100.00% |           0      0.00%    100.00% (Unspecified)
system.caches.L2Cache_Controller.MT_IIB.WB_Data::total          433                       (Unspecified)
system.caches.L2Cache_Controller.MT_IIB.WB_Data_clean |         156     22.51%     22.51% |         108     15.58%     38.10% |         114     16.45%     54.55% |          84     12.12%     66.67% |          69      9.96%     76.62% |          21      3.03%     79.65% |          40      5.77%     85.43% |         101     14.57%    100.00% (Unspecified)
system.caches.L2Cache_Controller.MT_IIB.WB_Data_clean::total          693                       (Unspecified)
system.caches.L2Cache_Controller.MT_SB.L1_GETS |           0      0.00%      0.00% |           1    100.00%    100.00% |           0      0.00%    100.00% |           0      0.00%    100.00% |           0      0.00%    100.00% |           0      0.00%    100.00% |           0      0.00%    100.00% |           0      0.00%    100.00% (Unspecified)
system.caches.L2Cache_Controller.MT_SB.L1_GETS::total            1                       (Unspecified)
system.caches.L2Cache_Controller.MT_SB.L1_UPGRADE |           0      0.00%      0.00% |           0      0.00%      0.00% |           0      0.00%      0.00% |           0      0.00%      0.00% |           0      0.00%      0.00% |           0      0.00%      0.00% |          48    100.00%    100.00% |           0      0.00%    100.00% (Unspecified)
system.caches.L2Cache_Controller.MT_SB.L1_UPGRADE::total           48                       (Unspecified)
system.caches.L2Cache_Controller.MT_SB.Unblock |         318     28.24%     28.24% |         187     16.61%     44.85% |         114     10.12%     54.97% |          84      7.46%     62.43% |          70      6.22%     68.65% |          21      1.87%     70.52% |         231     20.52%     91.03% |         101      8.97%    100.00% (Unspecified)
system.caches.L2Cache_Controller.MT_SB.Unblock::total         1126                       (Unspecified)
system.caches.RequestType.LD.latency_hist_seqr::bucket_size         1024                       (Unspecified)
system.caches.RequestType.LD.latency_hist_seqr::max_bucket        10239                       (Unspecified)
system.caches.RequestType.LD.latency_hist_seqr::samples     64720385                       (Unspecified)
system.caches.RequestType.LD.latency_hist_seqr::mean    82.796266                       (Unspecified)
system.caches.RequestType.LD.latency_hist_seqr::gmean     1.625579                       (Unspecified)
system.caches.RequestType.LD.latency_hist_seqr::stdev   361.620640                       (Unspecified)
system.caches.RequestType.LD.latency_hist_seqr |    62930630     97.23%     97.23% |     1145776      1.77%     99.00% |      496279      0.77%     99.77% |      124365      0.19%     99.96% |       21339      0.03%    100.00% |        1950      0.00%    100.00% |          46      0.00%    100.00% |           0      0.00%    100.00% |           0      0.00%    100.00% |           0      0.00%    100.00% (Unspecified)
system.caches.RequestType.LD.latency_hist_seqr::total     64720385                       (Unspecified)
system.caches.RequestType.LD.hit_latency_hist_seqr::bucket_size            1                       (Unspecified)
system.caches.RequestType.LD.hit_latency_hist_seqr::max_bucket            9                       (Unspecified)
system.caches.RequestType.LD.hit_latency_hist_seqr::samples     60189529                       (Unspecified)
system.caches.RequestType.LD.hit_latency_hist_seqr::mean     1.006106                       (Unspecified)
system.caches.RequestType.LD.hit_latency_hist_seqr::gmean     1.004241                       (Unspecified)
system.caches.RequestType.LD.hit_latency_hist_seqr::stdev     0.077899                       (Unspecified)
system.caches.RequestType.LD.hit_latency_hist_seqr |           0      0.00%      0.00% |    59822039     99.39%     99.39% |      367490      0.61%    100.00% |           0      0.00%    100.00% |           0      0.00%    100.00% |           0      0.00%    100.00% |           0      0.00%    100.00% |           0      0.00%    100.00% |           0      0.00%    100.00% |           0      0.00%    100.00% (Unspecified)
system.caches.RequestType.LD.hit_latency_hist_seqr::total     60189529                       (Unspecified)
system.caches.RequestType.LD.miss_latency_hist_seqr::bucket_size         1024                       (Unspecified)
system.caches.RequestType.LD.miss_latency_hist_seqr::max_bucket        10239                       (Unspecified)
system.caches.RequestType.LD.miss_latency_hist_seqr::samples      4530856                       (Unspecified)
system.caches.RequestType.LD.miss_latency_hist_seqr::mean  1169.326321                       (Unspecified)
system.caches.RequestType.LD.miss_latency_hist_seqr::gmean   976.565001                       (Unspecified)
system.caches.RequestType.LD.miss_latency_hist_seqr::stdev   773.656014                       (Unspecified)
system.caches.RequestType.LD.miss_latency_hist_seqr |     2741101     60.50%     60.50% |     1145776     25.29%     85.79% |      496279     10.95%     96.74% |      124365      2.74%     99.48% |       21339      0.47%     99.96% |        1950      0.04%    100.00% |          46      0.00%    100.00% |           0      0.00%    100.00% |           0      0.00%    100.00% |           0      0.00%    100.00% (Unspecified)
system.caches.RequestType.LD.miss_latency_hist_seqr::total      4530856                       (Unspecified)
system.caches.RequestType.ST.latency_hist_seqr::bucket_size         1024                       (Unspecified)
system.caches.RequestType.ST.latency_hist_seqr::max_bucket        10239                       (Unspecified)
system.caches.RequestType.ST.latency_hist_seqr::samples     27393528                       (Unspecified)
system.caches.RequestType.ST.latency_hist_seqr::mean    52.129870                       (Unspecified)
system.caches.RequestType.ST.latency_hist_seqr::gmean     1.356941                       (Unspecified)
system.caches.RequestType.ST.latency_hist_seqr::stdev   299.846576                       (Unspecified)
system.caches.RequestType.ST.latency_hist_seqr |    26896132     98.18%     98.18% |      295571      1.08%     99.26% |      153701      0.56%     99.82% |       40468      0.15%     99.97% |        7050      0.03%    100.00% |         593      0.00%    100.00% |          13      0.00%    100.00% |           0      0.00%    100.00% |           0      0.00%    100.00% |           0      0.00%    100.00% (Unspecified)
system.caches.RequestType.ST.latency_hist_seqr::total     27393528                       (Unspecified)
system.caches.RequestType.ST.hit_latency_hist_seqr::bucket_size          512                       (Unspecified)
system.caches.RequestType.ST.hit_latency_hist_seqr::max_bucket         5119                       (Unspecified)
system.caches.RequestType.ST.hit_latency_hist_seqr::samples     26257491                       (Unspecified)
system.caches.RequestType.ST.hit_latency_hist_seqr::mean     1.030478                       (Unspecified)
system.caches.RequestType.ST.hit_latency_hist_seqr::gmean     1.019366                       (Unspecified)
system.caches.RequestType.ST.hit_latency_hist_seqr::stdev     1.729303                       (Unspecified)
system.caches.RequestType.ST.hit_latency_hist_seqr |    26257437    100.00%    100.00% |          38      0.00%    100.00% |           8      0.00%    100.00% |           4      0.00%    100.00% |           2      0.00%    100.00% |           1      0.00%    100.00% |           1      0.00%    100.00% |           0      0.00%    100.00% |           0      0.00%    100.00% |           0      0.00%    100.00% (Unspecified)
system.caches.RequestType.ST.hit_latency_hist_seqr::total     26257491                       (Unspecified)
system.caches.RequestType.ST.miss_latency_hist_seqr::bucket_size         1024                       (Unspecified)
system.caches.RequestType.ST.miss_latency_hist_seqr::max_bucket        10239                       (Unspecified)
system.caches.RequestType.ST.miss_latency_hist_seqr::samples      1136037                       (Unspecified)
system.caches.RequestType.ST.miss_latency_hist_seqr::mean  1233.202162                       (Unspecified)
system.caches.RequestType.ST.miss_latency_hist_seqr::gmean  1009.109533                       (Unspecified)
system.caches.RequestType.ST.miss_latency_hist_seqr::stdev   844.168024                       (Unspecified)
system.caches.RequestType.ST.miss_latency_hist_seqr |      638657     56.22%     56.22% |      295559     26.02%     82.23% |      153698     13.53%     95.76% |       40467      3.56%     99.33% |        7050      0.62%     99.95% |         593      0.05%    100.00% |          13      0.00%    100.00% |           0      0.00%    100.00% |           0      0.00%    100.00% |           0      0.00%    100.00% (Unspecified)
system.caches.RequestType.ST.miss_latency_hist_seqr::total      1136037                       (Unspecified)
system.caches.RequestType.IFETCH.latency_hist_seqr::bucket_size          512                       (Unspecified)
system.caches.RequestType.IFETCH.latency_hist_seqr::max_bucket         5119                       (Unspecified)
system.caches.RequestType.IFETCH.latency_hist_seqr::samples     18664350                       (Unspecified)
system.caches.RequestType.IFETCH.latency_hist_seqr::mean     1.140524                       (Unspecified)
system.caches.RequestType.IFETCH.latency_hist_seqr::gmean     1.005517                       (Unspecified)
system.caches.RequestType.IFETCH.latency_hist_seqr::stdev     9.956440                       (Unspecified)
system.caches.RequestType.IFETCH.latency_hist_seqr |    18663717    100.00%    100.00% |         289      0.00%    100.00% |         135      0.00%    100.00% |         102      0.00%    100.00% |          57      0.00%    100.00% |          31      0.00%    100.00% |          11      0.00%    100.00% |           5      0.00%    100.00% |           2      0.00%    100.00% |           1      0.00%    100.00% (Unspecified)
system.caches.RequestType.IFETCH.latency_hist_seqr::total     18664350                       (Unspecified)
system.caches.RequestType.IFETCH.hit_latency_hist_seqr::bucket_size            1                       (Unspecified)
system.caches.RequestType.IFETCH.hit_latency_hist_seqr::max_bucket            9                       (Unspecified)
system.caches.RequestType.IFETCH.hit_latency_hist_seqr::samples     18632310                       (Unspecified)
system.caches.RequestType.IFETCH.hit_latency_hist_seqr::mean            1                       (Unspecified)
system.caches.RequestType.IFETCH.hit_latency_hist_seqr::gmean            1                       (Unspecified)
system.caches.RequestType.IFETCH.hit_latency_hist_seqr |           0      0.00%      0.00% |    18632310    100.00%    100.00% |           0      0.00%    100.00% |           0      0.00%    100.00% |           0      0.00%    100.00% |           0      0.00%    100.00% |           0      0.00%    100.00% |           0      0.00%    100.00% |           0      0.00%    100.00% |           0      0.00%    100.00% (Unspecified)
system.caches.RequestType.IFETCH.hit_latency_hist_seqr::total     18632310                       (Unspecified)
system.caches.RequestType.IFETCH.miss_latency_hist_seqr::bucket_size          512                       (Unspecified)
system.caches.RequestType.IFETCH.miss_latency_hist_seqr::max_bucket         5119                       (Unspecified)
system.caches.RequestType.IFETCH.miss_latency_hist_seqr::samples        32040                       (Unspecified)
system.caches.RequestType.IFETCH.miss_latency_hist_seqr::mean    82.859863                       (Unspecified)
system.caches.RequestType.IFETCH.miss_latency_hist_seqr::gmean    24.651964                       (Unspecified)
system.caches.RequestType.IFETCH.miss_latency_hist_seqr::stdev   225.962246                       (Unspecified)
system.caches.RequestType.IFETCH.miss_latency_hist_seqr |       31407     98.02%     98.02% |         289      0.90%     98.93% |         135      0.42%     99.35% |         102      0.32%     99.67% |          57      0.18%     99.84% |          31      0.10%     99.94% |          11      0.03%     99.98% |           5      0.02%     99.99% |           2      0.01%    100.00% |           1      0.00%    100.00% (Unspecified)
system.caches.RequestType.IFETCH.miss_latency_hist_seqr::total        32040                       (Unspecified)
system.caches.RequestType.RMW_Read.latency_hist_seqr::bucket_size          512                       (Unspecified)
system.caches.RequestType.RMW_Read.latency_hist_seqr::max_bucket         5119                       (Unspecified)
system.caches.RequestType.RMW_Read.latency_hist_seqr::samples       173242                       (Unspecified)
system.caches.RequestType.RMW_Read.latency_hist_seqr::mean    11.513294                       (Unspecified)
system.caches.RequestType.RMW_Read.latency_hist_seqr::gmean     1.210745                       (Unspecified)
system.caches.RequestType.RMW_Read.latency_hist_seqr::stdev   109.046021                       (Unspecified)
system.caches.RequestType.RMW_Read.latency_hist_seqr |      171514     99.00%     99.00% |        1233      0.71%     99.71% |         292      0.17%     99.88% |         110      0.06%     99.95% |          54      0.03%     99.98% |          26      0.02%     99.99% |           6      0.00%    100.00% |           6      0.00%    100.00% |           1      0.00%    100.00% |           0      0.00%    100.00% (Unspecified)
system.caches.RequestType.RMW_Read.latency_hist_seqr::total       173242                       (Unspecified)
system.caches.RequestType.RMW_Read.hit_latency_hist_seqr::bucket_size          512                       (Unspecified)
system.caches.RequestType.RMW_Read.hit_latency_hist_seqr::max_bucket         5119                       (Unspecified)
system.caches.RequestType.RMW_Read.hit_latency_hist_seqr::samples       171155                       (Unspecified)
system.caches.RequestType.RMW_Read.hit_latency_hist_seqr::mean     3.465788                       (Unspecified)
system.caches.RequestType.RMW_Read.hit_latency_hist_seqr::gmean     1.129454                       (Unspecified)
system.caches.RequestType.RMW_Read.hit_latency_hist_seqr::stdev    54.102928                       (Unspecified)
system.caches.RequestType.RMW_Read.hit_latency_hist_seqr |      170810     99.80%     99.80% |         235      0.14%     99.94% |          62      0.04%     99.97% |          21      0.01%     99.98% |          13      0.01%     99.99% |           7      0.00%    100.00% |           4      0.00%    100.00% |           3      0.00%    100.00% |           0      0.00%    100.00% |           0      0.00%    100.00% (Unspecified)
system.caches.RequestType.RMW_Read.hit_latency_hist_seqr::total       171155                       (Unspecified)
system.caches.RequestType.RMW_Read.miss_latency_hist_seqr::bucket_size          512                       (Unspecified)
system.caches.RequestType.RMW_Read.miss_latency_hist_seqr::max_bucket         5119                       (Unspecified)
system.caches.RequestType.RMW_Read.miss_latency_hist_seqr::samples         2087                       (Unspecified)
system.caches.RequestType.RMW_Read.miss_latency_hist_seqr::mean   671.489698                       (Unspecified)
system.caches.RequestType.RMW_Read.miss_latency_hist_seqr::gmean   361.793727                       (Unspecified)
system.caches.RequestType.RMW_Read.miss_latency_hist_seqr::stdev   553.429420                       (Unspecified)
system.caches.RequestType.RMW_Read.miss_latency_hist_seqr |         704     33.73%     33.73% |         998     47.82%     81.55% |         230     11.02%     92.57% |          89      4.26%     96.84% |          41      1.96%     98.80% |          19      0.91%     99.71% |           2      0.10%     99.81% |           3      0.14%     99.95% |           1      0.05%    100.00% |           0      0.00%    100.00% (Unspecified)
system.caches.RequestType.RMW_Read.miss_latency_hist_seqr::total         2087                       (Unspecified)
system.caches.RequestType.Locked_RMW_Read.latency_hist_seqr::bucket_size          512                       (Unspecified)
system.caches.RequestType.Locked_RMW_Read.latency_hist_seqr::max_bucket         5119                       (Unspecified)
system.caches.RequestType.Locked_RMW_Read.latency_hist_seqr::samples         4584                       (Unspecified)
system.caches.RequestType.Locked_RMW_Read.latency_hist_seqr::mean    51.148124                       (Unspecified)
system.caches.RequestType.Locked_RMW_Read.latency_hist_seqr::gmean     1.605457                       (Unspecified)
system.caches.RequestType.Locked_RMW_Read.latency_hist_seqr::stdev   219.331817                       (Unspecified)
system.caches.RequestType.Locked_RMW_Read.latency_hist_seqr |        4352     94.94%     94.94% |         185      4.04%     98.97% |          28      0.61%     99.59% |          10      0.22%     99.80% |           5      0.11%     99.91% |           2      0.04%     99.96% |           2      0.04%    100.00% |           0      0.00%    100.00% |           0      0.00%    100.00% |           0      0.00%    100.00% (Unspecified)
system.caches.RequestType.Locked_RMW_Read.latency_hist_seqr::total         4584                       (Unspecified)
system.caches.RequestType.Locked_RMW_Read.hit_latency_hist_seqr::bucket_size            1                       (Unspecified)
system.caches.RequestType.Locked_RMW_Read.hit_latency_hist_seqr::max_bucket            9                       (Unspecified)
system.caches.RequestType.Locked_RMW_Read.hit_latency_hist_seqr::samples         4218                       (Unspecified)
system.caches.RequestType.Locked_RMW_Read.hit_latency_hist_seqr::mean            1                       (Unspecified)
system.caches.RequestType.Locked_RMW_Read.hit_latency_hist_seqr::gmean            1                       (Unspecified)
system.caches.RequestType.Locked_RMW_Read.hit_latency_hist_seqr |           0      0.00%      0.00% |        4218    100.00%    100.00% |           0      0.00%    100.00% |           0      0.00%    100.00% |           0      0.00%    100.00% |           0      0.00%    100.00% |           0      0.00%    100.00% |           0      0.00%    100.00% |           0      0.00%    100.00% |           0      0.00%    100.00% (Unspecified)
system.caches.RequestType.Locked_RMW_Read.hit_latency_hist_seqr::total         4218                       (Unspecified)
system.caches.RequestType.Locked_RMW_Read.miss_latency_hist_seqr::bucket_size          512                       (Unspecified)
system.caches.RequestType.Locked_RMW_Read.miss_latency_hist_seqr::max_bucket         5119                       (Unspecified)
system.caches.RequestType.Locked_RMW_Read.miss_latency_hist_seqr::samples          366                       (Unspecified)
system.caches.RequestType.Locked_RMW_Read.miss_latency_hist_seqr::mean   629.084699                       (Unspecified)
system.caches.RequestType.Locked_RMW_Read.miss_latency_hist_seqr::gmean   375.871768                       (Unspecified)
system.caches.RequestType.Locked_RMW_Read.miss_latency_hist_seqr::stdev   489.943694                       (Unspecified)
system.caches.RequestType.Locked_RMW_Read.miss_latency_hist_seqr |         134     36.61%     36.61% |         185     50.55%     87.16% |          28      7.65%     94.81% |          10      2.73%     97.54% |           5      1.37%     98.91% |           2      0.55%     99.45% |           2      0.55%    100.00% |           0      0.00%    100.00% |           0      0.00%    100.00% |           0      0.00%    100.00% (Unspecified)
system.caches.RequestType.Locked_RMW_Read.miss_latency_hist_seqr::total          366                       (Unspecified)
system.caches.RequestType.Locked_RMW_Write.latency_hist_seqr::bucket_size            1                       (Unspecified)
system.caches.RequestType.Locked_RMW_Write.latency_hist_seqr::max_bucket            9                       (Unspecified)
system.caches.RequestType.Locked_RMW_Write.latency_hist_seqr::samples         4584                       (Unspecified)
system.caches.RequestType.Locked_RMW_Write.latency_hist_seqr::mean            1                       (Unspecified)
system.caches.RequestType.Locked_RMW_Write.latency_hist_seqr::gmean            1                       (Unspecified)
system.caches.RequestType.Locked_RMW_Write.latency_hist_seqr |           0      0.00%      0.00% |        4584    100.00%    100.00% |           0      0.00%    100.00% |           0      0.00%    100.00% |           0      0.00%    100.00% |           0      0.00%    100.00% |           0      0.00%    100.00% |           0      0.00%    100.00% |           0      0.00%    100.00% |           0      0.00%    100.00% (Unspecified)
system.caches.RequestType.Locked_RMW_Write.latency_hist_seqr::total         4584                       (Unspecified)
system.caches.RequestType.Locked_RMW_Write.hit_latency_hist_seqr::bucket_size            1                       (Unspecified)
system.caches.RequestType.Locked_RMW_Write.hit_latency_hist_seqr::max_bucket            9                       (Unspecified)
system.caches.RequestType.Locked_RMW_Write.hit_latency_hist_seqr::samples         4584                       (Unspecified)
system.caches.RequestType.Locked_RMW_Write.hit_latency_hist_seqr::mean            1                       (Unspecified)
system.caches.RequestType.Locked_RMW_Write.hit_latency_hist_seqr::gmean            1                       (Unspecified)
[...]
system.o3Cpu7.iew.squashCycles                   7193                       # Number of cycles IEW is squashing (Cycle)
system.o3Cpu7.iew.blockCycles                  291712                       # Number of cycles IEW is blocking (Cycle)
system.o3Cpu7.iew.unblockCycles              21825296                       # Number of cycles IEW is unblocking (Cycle)
system.o3Cpu7.iew.dispatchedInsts            46156627                       # Number of instructions dispatched to IQ (Count)
system.o3Cpu7.iew.dispSquashedInsts               556                       # Number of squashed instructions skipped by dispatch (Count)
system.o3Cpu7.iew.dispLoadInsts              15329017                       # Number of dispatched load instructions (Count)
system.o3Cpu7.iew.dispStoreInsts              3427978                       # Number of dispatched store instructions (Count)
system.o3Cpu7.iew.dispNonSpecInsts               3367                       # Number of dispatched non-speculative instructions (Count)
system.o3Cpu7.iew.iqFullEvents                    402                       # Number of times the IQ has become full, causing a stall (Count)
system.o3Cpu7.iew.lsqFullEvents              21823609                       # Number of times the LSQ has become full, causing a stall (Count)
system.o3Cpu7.iew.memOrderViolationEvents         1141                       # Number of memory order violations (Count)
system.o3Cpu7.iew.predictedTakenIncorrect         5082                       # Number of branches that were predicted taken incorrectly (Count)
system.o3Cpu7.iew.predictedNotTakenIncorrect         1005                       # Number of branches that were predicted not taken incorrectly (Count)
system.o3Cpu7.iew.branchMispredicts              6087                       # Number of branch mispredicts detected at execute (Count)
system.o3Cpu7.iew.instsToCommit              45968803                       # Cumulative count of insts sent to commit (Count)
system.o3Cpu7.iew.writebackCount             45965783                       # Cumulative count of insts written-back (Count)
system.o3Cpu7.iew.producerInst               38869701                       # Number of instructions producing a value (Count)
system.o3Cpu7.iew.consumerInst               68662607                       # Number of instructions consuming a value (Count)
system.o3Cpu7.iew.wbRate                     0.115624                       # Insts written-back per cycle ((Count/Cycle))
system.o3Cpu7.iew.wbFanout                   0.566097                       # Average fanout of values written-back ((Count/Count))
system.o3Cpu7.interrupts.clk_domain.clock         3200                       # Clock period in ticks (Tick)
system.o3Cpu7.lsq0.forwLoads                    13093                       # Number of loads that had data forwarded from stores (Count)
system.o3Cpu7.lsq0.squashedLoads                87040                       # Number of loads squashed (Count)
system.o3Cpu7.lsq0.ignoredResponses                37                       # Number of memory responses ignored because the instruction is squashed (Count)
system.o3Cpu7.lsq0.memOrderViolation             1141                       # Number of memory ordering violations (Count)
system.o3Cpu7.lsq0.squashedStores               17381                       # Number of stores squashed (Count)
system.o3Cpu7.lsq0.rescheduledLoads                73                       # Number of loads that were rescheduled (Count)
system.o3Cpu7.lsq0.blockedByCache             1706016                       # Number of times an access to memory failed due to the cache being blocked (Count)
system.o3Cpu7.lsq0.loadToUse::samples        15241913                       # Distribution of cycle latency between the first time a load is issued and its completion (Unspecified)
system.o3Cpu7.lsq0.loadToUse::mean         368.456568                       # Distribution of cycle latency between the first time a load is issued and its completion (Unspecified)
system.o3Cpu7.lsq0.loadToUse::stdev        696.398236                       # Distribution of cycle latency between the first time a load is issued and its completion (Unspecified)
system.o3Cpu7.lsq0.loadToUse::0-9             9980242     65.48%     65.48% # Distribution of cycle latency between the first time a load is issued and its completion (Unspecified)
system.o3Cpu7.lsq0.loadToUse::10-19             25889      0.17%     65.65% # Distribution of cycle latency between the first time a load is issued and its completion (Unspecified)
system.o3Cpu7.lsq0.loadToUse::20-29             11573      0.08%     65.72% # Distribution of cycle latency between the first time a load is issued and its completion (Unspecified)
system.o3Cpu7.lsq0.loadToUse::30-39            154041      1.01%     66.74% # Distribution of cycle latency between the first time a load is issued and its completion (Unspecified)
system.o3Cpu7.lsq0.loadToUse::40-49             98019      0.64%     67.38% # Distribution of cycle latency between the first time a load is issued and its completion (Unspecified)
system.o3Cpu7.lsq0.loadToUse::50-59              7359      0.05%     67.43% # Distribution of cycle latency between the first time a load is issued and its completion (Unspecified)
system.o3Cpu7.lsq0.loadToUse::60-69              7943      0.05%     67.48% # Distribution of cycle latency between the first time a load is issued and its completion (Unspecified)
system.o3Cpu7.lsq0.loadToUse::70-79             10768      0.07%     67.55% # Distribution of cycle latency between the first time a load is issued and its completion (Unspecified)
system.o3Cpu7.lsq0.loadToUse::80-89             17520      0.11%     67.66% # Distribution of cycle latency between the first time a load is issued and its completion (Unspecified)
system.o3Cpu7.lsq0.loadToUse::90-99             11064      0.07%     67.74% # Distribution of cycle latency between the first time a load is issued and its completion (Unspecified)
system.o3Cpu7.lsq0.loadToUse::100-109            3788      0.02%     67.76% # Distribution of cycle latency between the first time a load is issued and its completion (Unspecified)
system.o3Cpu7.lsq0.loadToUse::110-119            4535      0.03%     67.79% # Distribution of cycle latency between the first time a load is issued and its completion (Unspecified)
system.o3Cpu7.lsq0.loadToUse::120-129            4197      0.03%     67.82% # Distribution of cycle latency between the first time a load is issued and its completion (Unspecified)
system.o3Cpu7.lsq0.loadToUse::130-139            7526      0.05%     67.87% # Distribution of cycle latency between the first time a load is issued and its completion (Unspecified)
system.o3Cpu7.lsq0.loadToUse::140-149            6002      0.04%     67.91% # Distribution of cycle latency between the first time a load is issued and its completion (Unspecified)
system.o3Cpu7.lsq0.loadToUse::150-159            3831      0.03%     67.93% # Distribution of cycle latency between the first time a load is issued and its completion (Unspecified)
system.o3Cpu7.lsq0.loadToUse::160-169            3977      0.03%     67.96% # Distribution of cycle latency between the first time a load is issued and its completion (Unspecified)
system.o3Cpu7.lsq0.loadToUse::170-179            4217      0.03%     67.99% # Distribution of cycle latency between the first time a load is issued and its completion (Unspecified)
system.o3Cpu7.lsq0.loadToUse::180-189            8005      0.05%     68.04% # Distribution of cycle latency between the first time a load is issued and its completion (Unspecified)
system.o3Cpu7.lsq0.loadToUse::190-199            7047      0.05%     68.09% # Distribution of cycle latency between the first time a load is issued and its completion (Unspecified)
system.o3Cpu7.lsq0.loadToUse::200-209            5130      0.03%     68.12% # Distribution of cycle latency between the first time a load is issued and its completion (Unspecified)
system.o3Cpu7.lsq0.loadToUse::210-219            4966      0.03%     68.15% # Distribution of cycle latency between the first time a load is issued and its completion (Unspecified)
system.o3Cpu7.lsq0.loadToUse::220-229            5580      0.04%     68.19% # Distribution of cycle latency between the first time a load is issued and its completion (Unspecified)
system.o3Cpu7.lsq0.loadToUse::230-239           15167      0.10%     68.29% # Distribution of cycle latency between the first time a load is issued and its completion (Unspecified)
system.o3Cpu7.lsq0.loadToUse::240-249           10766      0.07%     68.36% # Distribution of cycle latency between the first time a load is issued and its completion (Unspecified)
system.o3Cpu7.lsq0.loadToUse::250-259            4981      0.03%     68.39% # Distribution of cycle latency between the first time a load is issued and its completion (Unspecified)
system.o3Cpu7.lsq0.loadToUse::260-269            5054      0.03%     68.42% # Distribution of cycle latency between the first time a load is issued and its completion (Unspecified)
system.o3Cpu7.lsq0.loadToUse::270-279            8824      0.06%     68.48% # Distribution of cycle latency between the first time a load is issued and its completion (Unspecified)
system.o3Cpu7.lsq0.loadToUse::280-289           14004      0.09%     68.57% # Distribution of cycle latency between the first time a load is issued and its completion (Unspecified)
system.o3Cpu7.lsq0.loadToUse::290-299            6129      0.04%     68.61% # Distribution of cycle latency between the first time a load is issued and its completion (Unspecified)
system.o3Cpu7.lsq0.loadToUse::overflows       4783769     31.39%    100.00% # Distribution of cycle latency between the first time a load is issued and its completion (Unspecified)
system.o3Cpu7.lsq0.loadToUse::min_value             2                       # Distribution of cycle latency between the first time a load is issued and its completion (Unspecified)
system.o3Cpu7.lsq0.loadToUse::max_value          8249                       # Distribution of cycle latency between the first time a load is issued and its completion (Unspecified)
system.o3Cpu7.lsq0.loadToUse::total          15241913                       # Distribution of cycle latency between the first time a load is issued and its completion (Unspecified)
system.o3Cpu7.mmu.dtb.rdAccesses             15295660                       # TLB accesses on read requests (Count)
system.o3Cpu7.mmu.dtb.wrAccesses              3416231                       # TLB accesses on write requests (Count)
system.o3Cpu7.mmu.dtb.rdMisses                   7428                       # TLB misses on read requests (Count)
system.o3Cpu7.mmu.dtb.wrMisses                   1978                       # TLB misses on write requests (Count)
system.o3Cpu7.mmu.dtb.walker.power_state.pwrStateResidencyTicks::UNDEFINED  80523594200                       # Cumulative time (in ticks) in various power states (Tick)
system.o3Cpu7.mmu.itb.rdAccesses                    0                       # TLB accesses on read requests (Count)
system.o3Cpu7.mmu.itb.wrAccesses              2324325                       # TLB accesses on write requests (Count)
system.o3Cpu7.mmu.itb.rdMisses                      0                       # TLB misses on read requests (Count)
system.o3Cpu7.mmu.itb.wrMisses                    146                       # TLB misses on write requests (Count)
system.o3Cpu7.mmu.itb.walker.power_state.pwrStateResidencyTicks::UNDEFINED  80523594200                       # Cumulative time (in ticks) in various power states (Tick)
system.o3Cpu7.power_state.pwrStateResidencyTicks::OFF  80523594200                       # Cumulative time (in ticks) in various power states (Tick)
system.o3Cpu7.rename.squashCycles                7193                       # Number of cycles rename is squashing (Cycle)
system.o3Cpu7.rename.idleCycles               1470215                       # Number of cycles rename is idle (Cycle)
system.o3Cpu7.rename.blockCycles             22359533                       # Number of cycles rename is blocking (Cycle)
system.o3Cpu7.rename.serializeStallCycles       752088                       # count of cycles rename stalled for serializing inst (Cycle)
system.o3Cpu7.rename.runCycles                2638935                       # Number of cycles rename is running (Cycle)
system.o3Cpu7.rename.unblockCycles          355287544                       # Number of cycles rename is unblocking (Cycle)
system.o3Cpu7.rename.renamedInsts            46211370                       # Number of instructions processed by rename (Count)
system.o3Cpu7.rename.ROBFullEvents              10089                       # Number of times rename has blocked due to ROB full (Count)
system.o3Cpu7.rename.IQFullEvents               67970                       # Number of times rename has blocked due to IQ full (Count)
system.o3Cpu7.rename.LQFullEvents           206310389                       # Number of times rename has blocked due to LQ full (Count)
system.o3Cpu7.rename.SQFullEvents           148531623                       # Number of times rename has blocked due to SQ full (Count)
system.o3Cpu7.rename.renamedOperands         59125534                       # Number of destination operands rename has renamed (Count)
system.o3Cpu7.rename.lookups                148057163                       # Number of register rename lookups that rename has made (Count)
system.o3Cpu7.rename.intLookups              46547967                       # Number of integer rename lookups (Count)
system.o3Cpu7.rename.fpLookups               56000126                       # Number of floating rename lookups (Count)
system.o3Cpu7.rename.committedMaps           58675712                       # Number of HB maps that are committed (Count)
system.o3Cpu7.rename.undoneMaps                449643                       # Number of HB maps that are undone due to squashing (Count)
system.o3Cpu7.rename.serializing                 3617                       # count of serializing insts renamed (Count)
system.o3Cpu7.rename.tempSerializing             3790                       # count of temporary serializing insts renamed (Count)
system.o3Cpu7.rename.skidInsts               13461099                       # count of insts added to the skid buffer (Count)
system.o3Cpu7.rob.reads                     426457509                       # The number of ROB reads (Count)
system.o3Cpu7.rob.writes                     92326959                       # The number of ROB writes (Count)
system.o3Cpu7.thread_0.numInsts              22711998                       # Number of Instructions committed (Count)
system.o3Cpu7.thread_0.numOps                45878370                       # Number of Ops committed (Count)
system.o3Cpu7.thread_0.numMemRefs                   0                       # Number of Memory References (Count)
system.pc.bad_addr.power_state.pwrStateResidencyTicks::UNDEFINED  80523594200                       # Cumulative time (in ticks) in various power states (Tick)
system.pc.com_1.power_state.pwrStateResidencyTicks::UNDEFINED  80523594200                       # Cumulative time (in ticks) in various power states (Tick)
system.pc.default_bus.power_state.pwrStateResidencyTicks::UNDEFINED  80523594200                       # Cumulative time (in ticks) in various power states (Tick)
system.pc.empty_isa.power_state.pwrStateResidencyTicks::UNDEFINED  80523594200                       # Cumulative time (in ticks) in various power states (Tick)
system.pc.fake_com_2.power_state.pwrStateResidencyTicks::UNDEFINED  80523594200                       # Cumulative time (in ticks) in various power states (Tick)
system.pc.fake_com_3.power_state.pwrStateResidencyTicks::UNDEFINED  80523594200                       # Cumulative time (in ticks) in various power states (Tick)
system.pc.fake_com_4.power_state.pwrStateResidencyTicks::UNDEFINED  80523594200                       # Cumulative time (in ticks) in various power states (Tick)
system.pc.fake_floppy.power_state.pwrStateResidencyTicks::UNDEFINED  80523594200                       # Cumulative time (in ticks) in various power states (Tick)
system.pc.pci_host.power_state.pwrStateResidencyTicks::UNDEFINED  80523594200                       # Cumulative time (in ticks) in various power states (Tick)
system.pc.south_bridge.cmos.power_state.pwrStateResidencyTicks::UNDEFINED  80523594200                       # Cumulative time (in ticks) in various power states (Tick)
system.pc.south_bridge.dma1.power_state.pwrStateResidencyTicks::UNDEFINED  80523594200                       # Cumulative time (in ticks) in various power states (Tick)
system.pc.south_bridge.ide.disks0.IdeDisk.dmaReadFullPages            0                       # Number of full page size DMA reads (not PRD). (Count)
system.pc.south_bridge.ide.disks0.IdeDisk.dmaReadBytes            0                       # Number of bytes transfered via DMA reads (not PRD). (Byte)
system.pc.south_bridge.ide.disks0.IdeDisk.dmaReadTxs            0                       # Number of DMA read transactions (not PRD). (Count)
system.pc.south_bridge.ide.disks0.IdeDisk.dmaWriteFullPages            0                       # Number of full page size DMA writes. (Count)
system.pc.south_bridge.ide.disks0.IdeDisk.dmaWriteBytes            0                       # Number of bytes transfered via DMA writes. (Byte)
system.pc.south_bridge.ide.disks0.IdeDisk.dmaWriteTxs            0                       # Number of DMA write transactions. (Count)
system.pc.south_bridge.ide.disks1.IdeDisk.dmaReadFullPages            0                       # Number of full page size DMA reads (not PRD). (Count)
system.pc.south_bridge.ide.disks1.IdeDisk.dmaReadBytes            0                       # Number of bytes transfered via DMA reads (not PRD). (Byte)
system.pc.south_bridge.ide.disks1.IdeDisk.dmaReadTxs            0                       # Number of DMA read transactions (not PRD). (Count)
system.pc.south_bridge.ide.disks1.IdeDisk.dmaWriteFullPages            0                       # Number of full page size DMA writes. (Count)
system.pc.south_bridge.ide.disks1.IdeDisk.dmaWriteBytes            0                       # Number of bytes transfered via DMA writes. (Byte)
system.pc.south_bridge.ide.disks1.IdeDisk.dmaWriteTxs            0                       # Number of DMA write transactions. (Count)
system.pc.south_bridge.ide.power_state.pwrStateResidencyTicks::UNDEFINED  80523594200                       # Cumulative time (in ticks) in various power states (Tick)
system.pc.south_bridge.io_apic.power_state.pwrStateResidencyTicks::UNDEFINED  80523594200                       # Cumulative time (in ticks) in various power states (Tick)
system.pc.south_bridge.keyboard.power_state.pwrStateResidencyTicks::UNDEFINED  80523594200                       # Cumulative time (in ticks) in various power states (Tick)
system.pc.south_bridge.pic1.power_state.pwrStateResidencyTicks::UNDEFINED  80523594200                       # Cumulative time (in ticks) in various power states (Tick)
system.pc.south_bridge.pic2.power_state.pwrStateResidencyTicks::UNDEFINED  80523594200                       # Cumulative time (in ticks) in various power states (Tick)
system.pc.south_bridge.pit.power_state.pwrStateResidencyTicks::UNDEFINED  80523594200                       # Cumulative time (in ticks) in various power states (Tick)
system.pc.south_bridge.speaker.power_state.pwrStateResidencyTicks::UNDEFINED  80523594200                       # Cumulative time (in ticks) in various power states (Tick)
system.workload.inst.arm                            0                       # number of arm instructions executed (Count)
system.workload.inst.quiesce                        0                       # number of quiesce instructions executed (Count)

---------- End Simulation Statistics   ----------
