
---------- Begin Simulation Statistics ----------
simSeconds                                   0.083393                       # Number of seconds simulated (Second)
simTicks                                  83392815240                       # Number of ticks simulated (Tick)
finalTick                                155141612836400                       # Number of ticks from beginning of simulation (restored from checkpoints and never reset) (Tick)
simFreq                                  1000000000000                       # The number of ticks per simulated second ((Tick/Second))
hostSeconds                                  11548.46                       # Real time elapsed on the host (Second)
hostTickRate                                  7221119                       # The number of ticks simulated per host second (ticks/s) ((Tick/Second))
hostMemory                                   19879528                       # Number of bytes of host memory used (Byte)
simInsts                                    182590680                       # Number of instructions simulated (Count)
simOps                                      368904886                       # Number of ops (including micro ops) simulated (Count)
hostInstRate                                    15811                       # Simulator instruction rate (inst/s) ((Count/Second))
hostOpRate                                      31944                       # Simulator op (including micro ops) rate (op/s) ((Count/Second))
system.caches.delayHistogram::bucket_size            8                       # delay histogram for all message (Unspecified)
system.caches.delayHistogram::max_bucket           79                       # delay histogram for all message (Unspecified)
system.caches.delayHistogram::samples        40234892                       # delay histogram for all message (Unspecified)
system.caches.delayHistogram::mean           0.275795                       # delay histogram for all message (Unspecified)
system.caches.delayHistogram::stdev          1.544921                       # delay histogram for all message (Unspecified)
system.caches.delayHistogram             |    39083552     97.14%     97.14% |     1104654      2.75%     99.88% |       44784      0.11%    100.00% |        1345      0.00%    100.00% |         392      0.00%    100.00% |          74      0.00%    100.00% |          17      0.00%    100.00% |          25      0.00%    100.00% |          46      0.00%    100.00% |           3      0.00%    100.00% # delay histogram for all message (Unspecified)
system.caches.delayHistogram::total          40234892                       # delay histogram for all message (Unspecified)
system.caches.m_outstandReqHistSeqr::bucket_size            2                       (Unspecified)
system.caches.m_outstandReqHistSeqr::max_bucket           19                       (Unspecified)
system.caches.m_outstandReqHistSeqr::samples    115233326                       (Unspecified)
system.caches.m_outstandReqHistSeqr::mean     4.748306                       (Unspecified)
system.caches.m_outstandReqHistSeqr::gmean     3.647470                       (Unspecified)
system.caches.m_outstandReqHistSeqr::stdev     3.059353                       (Unspecified)
system.caches.m_outstandReqHistSeqr      |    21231779     18.43%     18.43% |    29135772     25.28%     43.71% |    22656852     19.66%     63.37% |    15850916     13.76%     77.13% |    19052284     16.53%     93.66% |     6431563      5.58%     99.24% |      752640      0.65%     99.89% |       87405      0.08%     99.97% |       34115      0.03%    100.00% |           0      0.00%    100.00% (Unspecified)
system.caches.m_outstandReqHistSeqr::total    115233326                       (Unspecified)
system.caches.m_latencyHistSeqr::bucket_size         1024                       (Unspecified)
system.caches.m_latencyHistSeqr::max_bucket        10239                       (Unspecified)
system.caches.m_latencyHistSeqr::samples    115263302                       (Unspecified)
system.caches.m_latencyHistSeqr::mean       58.578823                       (Unspecified)
system.caches.m_latencyHistSeqr::gmean       1.423807                       (Unspecified)
system.caches.m_latencyHistSeqr::stdev     303.571034                       (Unspecified)
system.caches.m_latencyHistSeqr          |   112925021     97.97%     97.97% |     1534919      1.33%     99.30% |      635133      0.55%     99.85% |      145174      0.13%     99.98% |       21553      0.02%    100.00% |        1478      0.00%    100.00% |          24      0.00%    100.00% |           0      0.00%    100.00% |           0      0.00%    100.00% |           0      0.00%    100.00% (Unspecified)
system.caches.m_latencyHistSeqr::total      115263302                       (Unspecified)
system.caches.m_hitLatencyHistSeqr::bucket_size          512                       (Unspecified)
system.caches.m_hitLatencyHistSeqr::max_bucket         5119                       (Unspecified)
system.caches.m_hitLatencyHistSeqr::samples    109448388                       (Unspecified)
system.caches.m_hitLatencyHistSeqr::mean     1.019607                       (Unspecified)
system.caches.m_hitLatencyHistSeqr::gmean     1.010970                       (Unspecified)
system.caches.m_hitLatencyHistSeqr::stdev     2.306363                       (Unspecified)
system.caches.m_hitLatencyHistSeqr       |   109448025    100.00%    100.00% |         230      0.00%    100.00% |          72      0.00%    100.00% |          26      0.00%    100.00% |          21      0.00%    100.00% |           7      0.00%    100.00% |           6      0.00%    100.00% |           0      0.00%    100.00% |           1      0.00%    100.00% |           0      0.00%    100.00% (Unspecified)
system.caches.m_hitLatencyHistSeqr::total    109448388                       (Unspecified)
system.caches.m_missLatencyHistSeqr::bucket_size         1024                       (Unspecified)
system.caches.m_missLatencyHistSeqr::max_bucket        10239                       (Unspecified)
system.caches.m_missLatencyHistSeqr::samples      5814914                       (Unspecified)
system.caches.m_missLatencyHistSeqr::mean  1141.959145                       (Unspecified)
system.caches.m_missLatencyHistSeqr::gmean   896.457439                       (Unspecified)
system.caches.m_missLatencyHistSeqr::stdev   768.461793                       (Unspecified)
system.caches.m_missLatencyHistSeqr      |     3476766     59.79%     59.79% |     1534821     26.39%     86.19% |      635105     10.92%     97.11% |      145168      2.50%     99.60% |       21552      0.37%     99.97% |        1478      0.03%    100.00% |          24      0.00%    100.00% |           0      0.00%    100.00% |           0      0.00%    100.00% |           0      0.00%    100.00% (Unspecified)
system.caches.m_missLatencyHistSeqr::total      5814914                       (Unspecified)
system.caches.delayVCHist.vnet_0::bucket_size            8                       # delay histogram for vnet_0 (Unspecified)
system.caches.delayVCHist.vnet_0::max_bucket           79                       # delay histogram for vnet_0 (Unspecified)
system.caches.delayVCHist.vnet_0::samples     16888597                       # delay histogram for vnet_0 (Unspecified)
system.caches.delayVCHist.vnet_0::mean       0.607721                       # delay histogram for vnet_0 (Unspecified)
system.caches.delayVCHist.vnet_0::stdev      2.263620                       # delay histogram for vnet_0 (Unspecified)
system.caches.delayVCHist.vnet_0         |    15756062     93.29%     93.29% |     1089898      6.45%     99.75% |       42034      0.25%    100.00% |         429      0.00%    100.00% |          61      0.00%    100.00% |          22      0.00%    100.00% |          17      0.00%    100.00% |          25      0.00%    100.00% |          46      0.00%    100.00% |           3      0.00%    100.00% # delay histogram for vnet_0 (Unspecified)
system.caches.delayVCHist.vnet_0::total      16888597                       # delay histogram for vnet_0 (Unspecified)
system.caches.delayVCHist.vnet_1::bucket_size            8                       # delay histogram for vnet_1 (Unspecified)
system.caches.delayVCHist.vnet_1::max_bucket           79                       # delay histogram for vnet_1 (Unspecified)
system.caches.delayVCHist.vnet_1::samples     22946427                       # delay histogram for vnet_1 (Unspecified)
system.caches.delayVCHist.vnet_1::mean       0.036301                       # delay histogram for vnet_1 (Unspecified)
system.caches.delayVCHist.vnet_1::stdev      0.523465                       # delay histogram for vnet_1 (Unspecified)
system.caches.delayVCHist.vnet_1         |    22927622     99.92%     99.92% |       14756      0.06%     99.98% |        2750      0.01%     99.99% |         916      0.00%    100.00% |         331      0.00%    100.00% |          52      0.00%    100.00% |           0      0.00%    100.00% |           0      0.00%    100.00% |           0      0.00%    100.00% |           0      0.00%    100.00% # delay histogram for vnet_1 (Unspecified)
system.caches.delayVCHist.vnet_1::total      22946427                       # delay histogram for vnet_1 (Unspecified)
system.caches.delayVCHist.vnet_2::bucket_size            1                       # delay histogram for vnet_2 (Unspecified)
system.caches.delayVCHist.vnet_2::max_bucket            9                       # delay histogram for vnet_2 (Unspecified)
system.caches.delayVCHist.vnet_2::samples       399868                       # delay histogram for vnet_2 (Unspecified)
system.caches.delayVCHist.vnet_2::mean       0.000160                       # delay histogram for vnet_2 (Unspecified)
system.caches.delayVCHist.vnet_2::stdev      0.018976                       # delay histogram for vnet_2 (Unspecified)
system.caches.delayVCHist.vnet_2         |      399838     99.99%     99.99% |           0      0.00%     99.99% |          28      0.01%    100.00% |           0      0.00%    100.00% |           2      0.00%    100.00% |           0      0.00%    100.00% |           0      0.00%    100.00% |           0      0.00%    100.00% |           0      0.00%    100.00% |           0      0.00%    100.00% # delay histogram for vnet_2 (Unspecified)
system.caches.delayVCHist.vnet_2::total        399868                       # delay histogram for vnet_2 (Unspecified)
system.caches.L1Cache_Controller.Load    |     8522522     12.32%     12.32% |     8575182     12.40%     24.72% |     8626028     12.47%     37.19% |     8545225     12.35%     49.54% |     8777160     12.69%     62.23% |     8702946     12.58%     74.81% |     8644648     12.50%     87.31% |     8776738     12.69%    100.00% (Unspecified)
system.caches.L1Cache_Controller.Load::total     69170449                       (Unspecified)
system.caches.L1Cache_Controller.Ifetch  |     2292849     12.38%     12.38% |     2286461     12.35%     24.74% |     2309526     12.47%     37.21% |     2278080     12.31%     49.51% |     2352975     12.71%     62.22% |     2326931     12.57%     74.79% |     2317511     12.52%     87.31% |     2349082     12.69%    100.00% (Unspecified)
system.caches.L1Cache_Controller.Ifetch::total     18513415                       (Unspecified)
system.caches.L1Cache_Controller.Store   |     3419879     12.40%     12.40% |     3406435     12.35%     24.75% |     3440628     12.48%     37.23% |     3393159     12.30%     49.53% |     3504703     12.71%     62.24% |     3465080     12.56%     74.80% |     3451254     12.51%     87.32% |     3498316     12.68%    100.00% (Unspecified)
system.caches.L1Cache_Controller.Store::total     27579454                       (Unspecified)
system.caches.L1Cache_Controller.Inv     |       74661     18.71%     18.71% |       53853     13.50%     32.21% |       71098     17.82%     50.03% |       84141     21.09%     71.12% |       17420      4.37%     75.48% |       17311      4.34%     79.82% |       28611      7.17%     86.99% |       51908     13.01%    100.00% (Unspecified)
system.caches.L1Cache_Controller.Inv::total       399003                       (Unspecified)
system.caches.L1Cache_Controller.L1_Replacement |      708788     12.39%     12.39% |      705789     12.34%     24.74% |      713472     12.48%     37.21% |      703529     12.30%     49.51% |      727051     12.71%     62.23% |      718891     12.57%     74.80% |      715785     12.52%     87.32% |      725383     12.68%    100.00% (Unspecified)
system.caches.L1Cache_Controller.L1_Replacement::total      5718688                       (Unspecified)
system.caches.L1Cache_Controller.Fwd_GETX |           0      0.00%      0.00% |           2    100.00%    100.00% |           0      0.00%    100.00% |           0      0.00%    100.00% |           0      0.00%    100.00% |           0      0.00%    100.00% |           0      0.00%    100.00% |           0      0.00%    100.00% (Unspecified)
system.caches.L1Cache_Controller.Fwd_GETX::total            2                       (Unspecified)
system.caches.L1Cache_Controller.Fwd_GETS |         644     74.62%     74.62% |          97     11.24%     85.86% |          36      4.17%     90.03% |          15      1.74%     91.77% |          23      2.67%     94.44% |          15      1.74%     96.18% |          12      1.39%     97.57% |          21      2.43%    100.00% (Unspecified)
system.caches.L1Cache_Controller.Fwd_GETS::total          863                       (Unspecified)
system.caches.L1Cache_Controller.Data    |         190    100.00%    100.00% |           0      0.00%    100.00% |           0      0.00%    100.00% |           0      0.00%    100.00% |           0      0.00%    100.00% |           0      0.00%    100.00% |           0      0.00%    100.00% |           0      0.00%    100.00% (Unspecified)
system.caches.L1Cache_Controller.Data::total          190                       (Unspecified)
system.caches.L1Cache_Controller.Data_Exclusive |      562278     12.36%     12.36% |      562056     12.35%     24.71% |      567686     12.48%     37.19% |      560006     12.31%     49.50% |      578534     12.72%     62.21% |      572250     12.58%     74.79% |      569916     12.53%     87.32% |      577009     12.68%    100.00% (Unspecified)
system.caches.L1Cache_Controller.Data_Exclusive::total      4549735                       (Unspecified)
system.caches.L1Cache_Controller.DataS_fromL1 |          42      4.87%      4.87% |         377     43.68%     48.55% |         204     23.64%     72.19% |         135     15.64%     87.83% |          29      3.36%     91.19% |          38      4.40%     95.60% |          14      1.62%     97.22% |          24      2.78%    100.00% (Unspecified)
system.caches.L1Cache_Controller.DataS_fromL1::total          863                       (Unspecified)
system.caches.L1Cache_Controller.Data_all_Acks |      158659     12.55%     12.55% |      155567     12.31%     24.86% |      157476     12.46%     37.32% |      155269     12.29%     49.61% |      160421     12.69%     62.30% |      158428     12.54%     74.84% |      157833     12.49%     87.33% |      160165     12.67%    100.00% (Unspecified)
system.caches.L1Cache_Controller.Data_all_Acks::total      1263818                       (Unspecified)
system.caches.L1Cache_Controller.Ack     |        2207    100.00%    100.00% |           0      0.00%    100.00% |           0      0.00%    100.00% |           0      0.00%    100.00% |           0      0.00%    100.00% |           0      0.00%    100.00% |           0      0.00%    100.00% |           0      0.00%    100.00% (Unspecified)
system.caches.L1Cache_Controller.Ack::total         2207                       (Unspecified)
system.caches.L1Cache_Controller.Ack_all |         498    100.00%    100.00% |           0      0.00%    100.00% |           0      0.00%    100.00% |           0      0.00%    100.00% |           0      0.00%    100.00% |           0      0.00%    100.00% |           0      0.00%    100.00% |           0      0.00%    100.00% (Unspecified)
system.caches.L1Cache_Controller.Ack_all::total          498                       (Unspecified)
system.caches.L1Cache_Controller.WB_Ack  |      638602     11.91%     11.91% |      657854     12.27%     24.18% |      647867     12.08%     36.26% |      625025     11.66%     47.92% |      714719     13.33%     61.25% |      706562     13.18%     74.42% |      692705     12.92%     87.34% |      678743     12.66%    100.00% (Unspecified)
system.caches.L1Cache_Controller.WB_Ack::total      5362077                       (Unspecified)
system.caches.L1Cache_Controller.NP.Load |      564061     12.36%     12.36% |      563577     12.35%     24.71% |      569649     12.48%     37.19% |      561596     12.30%     49.49% |      580461     12.72%     62.21% |      574041     12.58%     74.79% |      571580     12.52%     87.31% |      579063     12.69%    100.00% (Unspecified)
system.caches.L1Cache_Controller.NP.Load::total      4564028                       (Unspecified)
system.caches.L1Cache_Controller.NP.Ifetch |        3952     18.50%     18.50% |        2257     10.56%     29.06% |        2523     11.81%     40.87% |        2535     11.87%     52.74% |        2528     11.83%     64.57% |        2524     11.81%     76.38% |        2522     11.80%     88.19% |        2524     11.81%    100.00% (Unspecified)
system.caches.L1Cache_Controller.NP.Ifetch::total        21365                       (Unspecified)
system.caches.L1Cache_Controller.NP.Store |      140976     12.41%     12.41% |      140306     12.35%     24.77% |      141638     12.47%     37.24% |      139721     12.30%     49.54% |      144321     12.71%     62.25% |      142627     12.56%     74.81% |      141966     12.50%     87.31% |      144103     12.69%    100.00% (Unspecified)
system.caches.L1Cache_Controller.NP.Store::total      1135658                       (Unspecified)
system.caches.L1Cache_Controller.NP.Inv  |         410      9.61%      9.61% |         482     11.30%     20.90% |         573     13.43%     34.33% |         534     12.51%     46.85% |         532     12.47%     59.32% |         609     14.27%     73.59% |         587     13.76%     87.34% |         540     12.66%    100.00% (Unspecified)
system.caches.L1Cache_Controller.NP.Inv::total         4267                       (Unspecified)
system.caches.L1Cache_Controller.I.Load  |        2974     11.13%     11.13% |        3646     13.65%     24.78% |        3282     12.29%     37.07% |        3355     12.56%     49.63% |        3385     12.67%     62.30% |        3455     12.93%     75.24% |        3577     13.39%     88.63% |        3038     11.37%    100.00% (Unspecified)
system.caches.L1Cache_Controller.I.Load::total        26712                       (Unspecified)
system.caches.L1Cache_Controller.I.Ifetch |        6033     14.42%     14.42% |        5108     12.21%     26.63% |        5090     12.17%     38.80% |        5110     12.22%     51.02% |        5130     12.26%     63.28% |        5118     12.24%     75.52% |        5126     12.25%     87.77% |        5114     12.23%    100.00% (Unspecified)
system.caches.L1Cache_Controller.I.Ifetch::total        41829                       (Unspecified)
system.caches.L1Cache_Controller.I.Store |        3176     12.69%     12.69% |        3108     12.42%     25.11% |        3186     12.73%     37.83% |        3096     12.37%     50.20% |        3160     12.62%     62.83% |        2953     11.80%     74.63% |        2993     11.96%     86.58% |        3358     13.42%    100.00% (Unspecified)
system.caches.L1Cache_Controller.I.Store::total        25030                       (Unspecified)
system.caches.L1Cache_Controller.I.L1_Replacement |       61682     20.75%     20.75% |       40964     13.78%     34.53% |       58250     19.59%     54.12% |       71484     24.05%     78.17% |        4910      1.65%     79.82% |        4915      1.65%     81.47% |       15674      5.27%     86.75% |       39401     13.25%    100.00% (Unspecified)
system.caches.L1Cache_Controller.I.L1_Replacement::total       297280                       (Unspecified)
system.caches.L1Cache_Controller.S.Load  |       32785     10.73%     10.73% |       48575     15.90%     26.63% |       42755     13.99%     40.62% |       41312     13.52%     54.14% |       35891     11.75%     65.89% |       35748     11.70%     77.59% |       34275     11.22%     88.81% |       34200     11.19%    100.00% (Unspecified)
system.caches.L1Cache_Controller.S.Load::total       305541                       (Unspecified)
system.caches.L1Cache_Controller.S.Ifetch |     2282864     12.37%     12.37% |     2279096     12.35%     24.73% |     2301913     12.48%     37.20% |     2270435     12.31%     49.51% |     2345317     12.71%     62.22% |     2319289     12.57%     74.79% |     2309863     12.52%     87.31% |     2341444     12.69%    100.00% (Unspecified)
system.caches.L1Cache_Controller.S.Ifetch::total     18450221                       (Unspecified)
system.caches.L1Cache_Controller.S.Store |         308    100.00%    100.00% |           0      0.00%    100.00% |           0      0.00%    100.00% |           0      0.00%    100.00% |           0      0.00%    100.00% |           0      0.00%    100.00% |           0      0.00%    100.00% |           0      0.00%    100.00% (Unspecified)
system.caches.L1Cache_Controller.S.Store::total          308                       (Unspecified)
system.caches.L1Cache_Controller.S.Inv   |        6435     14.08%     14.08% |        5715     12.50%     26.58% |        5579     12.21%     38.79% |        5650     12.36%     51.15% |        5621     12.30%     63.45% |        5557     12.16%     75.61% |        5557     12.16%     87.77% |        5592     12.23%    100.00% (Unspecified)
system.caches.L1Cache_Controller.S.Inv::total        45706                       (Unspecified)
system.caches.L1Cache_Controller.S.L1_Replacement |        8504     14.33%     14.33% |        6971     11.75%     26.08% |        7355     12.40%     38.48% |        7019     11.83%     50.31% |        7421     12.51%     62.82% |        7414     12.50%     75.32% |        7405     12.48%     87.80% |        7239     12.20%    100.00% (Unspecified)
system.caches.L1Cache_Controller.S.L1_Replacement::total        59328                       (Unspecified)
system.caches.L1Cache_Controller.E.Load  |     5332413     12.29%     12.29% |     5376002     12.39%     24.67% |     5406901     12.46%     37.13% |     5369304     12.37%     49.50% |     5511992     12.70%     62.20% |     5466629     12.60%     74.80% |     5430161     12.51%     87.31% |     5506490     12.69%    100.00% (Unspecified)
system.caches.L1Cache_Controller.E.Load::total     43399892                       (Unspecified)
system.caches.L1Cache_Controller.E.Store |        3739     13.30%     13.30% |        3453     12.29%     25.59% |        3360     11.96%     37.55% |        3497     12.44%     49.99% |        3436     12.23%     62.22% |        3694     13.14%     75.36% |        3680     13.09%     88.45% |        3245     11.55%    100.00% (Unspecified)
system.caches.L1Cache_Controller.E.Store::total        28104                       (Unspecified)
system.caches.L1Cache_Controller.E.Inv   |       60240     24.58%     24.58% |       40200     16.41%     40.99% |       39955     16.31%     57.29% |       46843     19.12%     76.41% |        4186      1.71%     78.12% |        4288      1.75%     79.87% |       15465      6.31%     86.18% |       33866     13.82%    100.00% (Unspecified)
system.caches.L1Cache_Controller.E.Inv::total       245043                       (Unspecified)
system.caches.L1Cache_Controller.E.L1_Replacement |      492077     11.52%     11.52% |      518557     12.14%     23.66% |      524530     12.28%     35.94% |      509823     11.94%     47.88% |      570798     13.36%     61.24% |      564240     13.21%     74.46% |      551067     12.90%     87.36% |      539938     12.64%    100.00% (Unspecified)
system.caches.L1Cache_Controller.E.L1_Replacement::total      4271030                       (Unspecified)
system.caches.L1Cache_Controller.E.Fwd_GETX |           0      0.00%      0.00% |           2    100.00%    100.00% |           0      0.00%    100.00% |           0      0.00%    100.00% |           0      0.00%    100.00% |           0      0.00%    100.00% |           0      0.00%    100.00% |           0      0.00%    100.00% (Unspecified)
system.caches.L1Cache_Controller.E.Fwd_GETX::total            2                       (Unspecified)
system.caches.L1Cache_Controller.E.Fwd_GETS |         125     36.34%     36.34% |          97     28.20%     64.53% |          36     10.47%     75.00% |          15      4.36%     79.36% |          23      6.69%     86.05% |          15      4.36%     90.41% |          12      3.49%     93.90% |          21      6.10%    100.00% (Unspecified)
system.caches.L1Cache_Controller.E.Fwd_GETS::total          344                       (Unspecified)
system.caches.L1Cache_Controller.M.Load  |     2590289     12.41%     12.41% |     2583382     12.38%     24.78% |     2603441     12.47%     37.26% |     2569658     12.31%     49.57% |     2645431     12.67%     62.24% |     2623073     12.57%     74.81% |     2605055     12.48%     87.29% |     2653947     12.71%    100.00% (Unspecified)
system.caches.L1Cache_Controller.M.Load::total     20874276                       (Unspecified)
system.caches.L1Cache_Controller.M.Store |     3271680     12.40%     12.40% |     3259568     12.35%     24.75% |     3292444     12.48%     37.22% |     3246845     12.30%     49.53% |     3353786     12.71%     62.24% |     3315806     12.56%     74.80% |     3302615     12.51%     87.32% |     3347610     12.68%    100.00% (Unspecified)
system.caches.L1Cache_Controller.M.Store::total     26390354                       (Unspecified)
system.caches.L1Cache_Controller.M.Inv   |        7575      7.29%      7.29% |        7442      7.16%     14.45% |       24976     24.03%     38.48% |       31108     29.93%     68.41% |        7077      6.81%     75.22% |        6853      6.59%     81.81% |        6999      6.73%     88.54% |       11908     11.46%    100.00% (Unspecified)
system.caches.L1Cache_Controller.M.Inv::total       103938                       (Unspecified)
system.caches.L1Cache_Controller.M.L1_Replacement |      146525     13.43%     13.43% |      139297     12.77%     26.20% |      123337     11.30%     37.50% |      115202     10.56%     48.06% |      143921     13.19%     61.25% |      142322     13.04%     74.30% |      141638     12.98%     87.28% |      138805     12.72%    100.00% (Unspecified)
system.caches.L1Cache_Controller.M.L1_Replacement::total      1091047                       (Unspecified)
system.caches.L1Cache_Controller.M.Fwd_GETS |         519    100.00%    100.00% |           0      0.00%    100.00% |           0      0.00%    100.00% |           0      0.00%    100.00% |           0      0.00%    100.00% |           0      0.00%    100.00% |           0      0.00%    100.00% |           0      0.00%    100.00% (Unspecified)
system.caches.L1Cache_Controller.M.Fwd_GETS::total          519                       (Unspecified)
system.caches.L1Cache_Controller.IS.Inv  |           0      0.00%      0.00% |          14     31.11%     31.11% |          14     31.11%     62.22% |           5     11.11%     73.33% |           4      8.89%     82.22% |           4      8.89%     91.11% |           2      4.44%     95.56% |           2      4.44%    100.00% (Unspecified)
system.caches.L1Cache_Controller.IS.Inv::total           45                       (Unspecified)
system.caches.L1Cache_Controller.IS.L1_Replacement |           0      0.00%      0.00% |           0      0.00%      0.00% |           0      0.00%      0.00% |           1     33.33%     33.33% |           1     33.33%     66.67% |           0      0.00%     66.67% |           1     33.33%    100.00% |           0      0.00%    100.00% (Unspecified)
system.caches.L1Cache_Controller.IS.L1_Replacement::total            3                       (Unspecified)
system.caches.L1Cache_Controller.IS.Data_Exclusive |      562278     12.36%     12.36% |      562056     12.35%     24.71% |      567686     12.48%     37.19% |      560006     12.31%     49.50% |      578534     12.72%     62.21% |      572250     12.58%     74.79% |      569916     12.53%     87.32% |      577009     12.68%    100.00% (Unspecified)
system.caches.L1Cache_Controller.IS.Data_Exclusive::total      4549735                       (Unspecified)
system.caches.L1Cache_Controller.IS.DataS_fromL1 |          42      4.87%      4.87% |         377     43.68%     48.55% |         204     23.64%     72.19% |         135     15.64%     87.83% |          29      3.36%     91.19% |          38      4.40%     95.60% |          14      1.62%     97.22% |          24      2.78%    100.00% (Unspecified)
system.caches.L1Cache_Controller.IS.DataS_fromL1::total          863                       (Unspecified)
system.caches.L1Cache_Controller.IS.Data_all_Acks |       14697     14.23%     14.23% |       12140     11.75%     25.98% |       12638     12.24%     38.22% |       12447     12.05%     50.27% |       12937     12.53%     62.80% |       12845     12.44%     75.24% |       12872     12.46%     87.70% |       12703     12.30%    100.00% (Unspecified)
system.caches.L1Cache_Controller.IS.Data_all_Acks::total       103279                       (Unspecified)
system.caches.L1Cache_Controller.IM.Data |         190    100.00%    100.00% |           0      0.00%    100.00% |           0      0.00%    100.00% |           0      0.00%    100.00% |           0      0.00%    100.00% |           0      0.00%    100.00% |           0      0.00%    100.00% |           0      0.00%    100.00% (Unspecified)
system.caches.L1Cache_Controller.IM.Data::total          190                       (Unspecified)
system.caches.L1Cache_Controller.IM.Data_all_Acks |      143962     12.41%     12.41% |      143413     12.36%     24.76% |      144824     12.48%     37.24% |      142817     12.31%     49.55% |      147480     12.71%     62.26% |      145579     12.54%     74.80% |      144959     12.49%     87.29% |      147460     12.71%    100.00% (Unspecified)
system.caches.L1Cache_Controller.IM.Data_all_Acks::total      1160494                       (Unspecified)
system.caches.L1Cache_Controller.SM.Ack  |        2207    100.00%    100.00% |           0      0.00%    100.00% |           0      0.00%    100.00% |           0      0.00%    100.00% |           0      0.00%    100.00% |           0      0.00%    100.00% |           0      0.00%    100.00% |           0      0.00%    100.00% (Unspecified)
system.caches.L1Cache_Controller.SM.Ack::total         2207                       (Unspecified)
system.caches.L1Cache_Controller.SM.Ack_all |         498    100.00%    100.00% |           0      0.00%    100.00% |           0      0.00%    100.00% |           0      0.00%    100.00% |           0      0.00%    100.00% |           0      0.00%    100.00% |           0      0.00%    100.00% |           0      0.00%    100.00% (Unspecified)
system.caches.L1Cache_Controller.SM.Ack_all::total          498                       (Unspecified)
system.caches.L1Cache_Controller.IS_I.Data_all_Acks |           0      0.00%      0.00% |          14     31.11%     31.11% |          14     31.11%     62.22% |           5     11.11%     73.33% |           4      8.89%     82.22% |           4      8.89%     91.11% |           2      4.44%     95.56% |           2      4.44%    100.00% (Unspecified)
system.caches.L1Cache_Controller.IS_I.Data_all_Acks::total           45                       (Unspecified)
system.caches.L1Cache_Controller.M_I.Inv |           1     25.00%     25.00% |           0      0.00%     25.00% |           1     25.00%     50.00% |           1     25.00%     75.00% |           0      0.00%     75.00% |           0      0.00%     75.00% |           1     25.00%    100.00% |           0      0.00%    100.00% (Unspecified)
system.caches.L1Cache_Controller.M_I.Inv::total            4                       (Unspecified)
system.caches.L1Cache_Controller.M_I.WB_Ack |      638601     11.91%     11.91% |      657854     12.27%     24.18% |      647866     12.08%     36.26% |      625024     11.66%     47.92% |      714719     13.33%     61.25% |      706562     13.18%     74.42% |      692704     12.92%     87.34% |      678743     12.66%    100.00% (Unspecified)
system.caches.L1Cache_Controller.M_I.WB_Ack::total      5362073                       (Unspecified)
system.caches.L1Cache_Controller.SINK_WB_ACK.WB_Ack |           1     25.00%     25.00% |           0      0.00%     25.00% |           1     25.00%     50.00% |           1     25.00%     75.00% |           0      0.00%     75.00% |           0      0.00%     75.00% |           1     25.00%    100.00% |           0      0.00%    100.00% (Unspecified)
system.caches.L1Cache_Controller.SINK_WB_ACK.WB_Ack::total            4                       (Unspecified)
system.caches.Directory_Controller.Fetch |        6301      0.11%      0.11% |     5678492     99.89%    100.00% (Unspecified)
system.caches.Directory_Controller.Fetch::total      5684793                       (Unspecified)
system.caches.Directory_Controller.Data  |         202      0.02%      0.02% |     1220836     99.98%    100.00% (Unspecified)
system.caches.Directory_Controller.Data::total      1221038                       (Unspecified)
system.caches.Directory_Controller.Memory_Data |        6301      0.11%      0.11% |     5678476     99.89%    100.00% (Unspecified)
system.caches.Directory_Controller.Memory_Data::total      5684777                       (Unspecified)
system.caches.Directory_Controller.Memory_Ack |         202      0.02%      0.02% |     1220836     99.98%    100.00% (Unspecified)
system.caches.Directory_Controller.Memory_Ack::total      1221038                       (Unspecified)
system.caches.Directory_Controller.CleanReplacement |        6158      0.14%      0.14% |     4457597     99.86%    100.00% (Unspecified)
system.caches.Directory_Controller.CleanReplacement::total      4463755                       (Unspecified)
system.caches.Directory_Controller.I.Fetch |        6301      0.11%      0.11% |     5678492     99.89%    100.00% (Unspecified)
system.caches.Directory_Controller.I.Fetch::total      5684793                       (Unspecified)
system.caches.Directory_Controller.M.Data |         202      0.02%      0.02% |     1220836     99.98%    100.00% (Unspecified)
system.caches.Directory_Controller.M.Data::total      1221038                       (Unspecified)
system.caches.Directory_Controller.M.CleanReplacement |        6158      0.14%      0.14% |     4457597     99.86%    100.00% (Unspecified)
system.caches.Directory_Controller.M.CleanReplacement::total      4463755                       (Unspecified)
system.caches.Directory_Controller.IM.Memory_Data |        6301      0.11%      0.11% |     5678476     99.89%    100.00% (Unspecified)
system.caches.Directory_Controller.IM.Memory_Data::total      5684777                       (Unspecified)
system.caches.Directory_Controller.MI.Memory_Ack |         202      0.02%      0.02% |     1220836     99.98%    100.00% (Unspecified)
system.caches.Directory_Controller.MI.Memory_Ack::total      1221038                       (Unspecified)
system.caches.L2Cache_Controller.L1_GET_INSTR |        7094     11.22%     11.22% |        8735     13.82%     25.04% |        7550     11.94%     36.99% |        4927      7.80%     44.78% |        8912     14.10%     58.88% |       10159     16.07%     74.96% |        8567     13.55%     88.51% |        7263     11.49%    100.00% (Unspecified)
system.caches.L2Cache_Controller.L1_GET_INSTR::total        63207                       (Unspecified)
system.caches.L2Cache_Controller.L1_GETS |      579311     12.62%     12.62% |      575367     12.53%     25.15% |      573893     12.50%     37.65% |      572390     12.47%     50.12% |      572763     12.47%     62.59% |      570799     12.43%     75.02% |      571819     12.45%     87.48% |      574972     12.52%    100.00% (Unspecified)
system.caches.L2Cache_Controller.L1_GETS::total      4591314                       (Unspecified)
system.caches.L2Cache_Controller.L1_GETX |      145787     12.56%     12.56% |      145359     12.52%     25.08% |      143359     12.35%     37.43% |      144500     12.45%     49.88% |      144352     12.44%     62.32% |      146338     12.61%     74.93% |      145406     12.53%     87.45% |      145653     12.55%    100.00% (Unspecified)
system.caches.L2Cache_Controller.L1_GETX::total      1160754                       (Unspecified)
system.caches.L2Cache_Controller.L1_UPGRADE |          28      7.45%      7.45% |          79     21.01%     28.46% |           0      0.00%     28.46% |           0      0.00%     28.46% |           1      0.27%     28.72% |           0      0.00%     28.72% |         268     71.28%    100.00% |           0      0.00%    100.00% (Unspecified)
system.caches.L2Cache_Controller.L1_UPGRADE::total          376                       (Unspecified)
system.caches.L2Cache_Controller.L1_PUTX |      671959     12.53%     12.53% |      671104     12.52%     25.05% |      668406     12.47%     37.51% |      669299     12.48%     49.99% |      669481     12.49%     62.48% |      670540     12.51%     74.99% |      670088     12.50%     87.48% |      671196     12.52%    100.00% (Unspecified)
system.caches.L2Cache_Controller.L1_PUTX::total      5362073                       (Unspecified)
system.caches.L2Cache_Controller.L1_PUTX_old |           2     25.00%     25.00% |           0      0.00%     25.00% |           0      0.00%     25.00% |           4     50.00%     75.00% |           0      0.00%     75.00% |           0      0.00%     75.00% |           0      0.00%     75.00% |           2     25.00%    100.00% (Unspecified)
system.caches.L2Cache_Controller.L1_PUTX_old::total            8                       (Unspecified)
system.caches.L2Cache_Controller.L2_Replacement |      140435     12.55%     12.55% |      139921     12.50%     25.05% |      139424     12.46%     37.50% |      139677     12.48%     49.98% |      139629     12.47%     62.45% |      140114     12.52%     74.97% |      139846     12.49%     87.46% |      140317     12.54%    100.00% (Unspecified)
system.caches.L2Cache_Controller.L2_Replacement::total      1119363                       (Unspecified)
system.caches.L2Cache_Controller.L2_Replacement_clean |      570706     12.50%     12.50% |      571164     12.51%     25.01% |      570403     12.49%     37.51% |      570584     12.50%     50.00% |      570681     12.50%     62.50% |      570648     12.50%     75.00% |      570500     12.50%     87.50% |      570744     12.50%    100.00% (Unspecified)
system.caches.L2Cache_Controller.L2_Replacement_clean::total      4565430                       (Unspecified)
system.caches.L2Cache_Controller.Mem_Data |      711137     12.51%     12.51% |      711085     12.51%     25.02% |      709827     12.49%     37.50% |      710258     12.49%     50.00% |      710310     12.49%     62.49% |      710761     12.50%     75.00% |      710343     12.50%     87.49% |      711056     12.51%    100.00% (Unspecified)
system.caches.L2Cache_Controller.Mem_Data::total      5684777                       (Unspecified)
system.caches.L2Cache_Controller.Mem_Ack |      711141     12.51%     12.51% |      711085     12.51%     25.02% |      709827     12.49%     37.50% |      710261     12.49%     50.00% |      710310     12.49%     62.49% |      710762     12.50%     75.00% |      710346     12.50%     87.49% |      711061     12.51%    100.00% (Unspecified)
system.caches.L2Cache_Controller.Mem_Ack::total      5684793                       (Unspecified)
system.caches.L2Cache_Controller.WB_Data |       13102     12.54%     12.54% |       13142     12.58%     25.12% |       12515     11.98%     37.10% |       12877     12.33%     49.43% |       12657     12.12%     61.55% |       13255     12.69%     74.24% |       13415     12.84%     87.08% |       13495     12.92%    100.00% (Unspecified)
system.caches.L2Cache_Controller.WB_Data::total       104458                       (Unspecified)
system.caches.L2Cache_Controller.WB_Data_clean |          93     26.80%     26.80% |          74     21.33%     48.13% |          39     11.24%     59.37% |          36     10.37%     69.74% |          28      8.07%     77.81% |          24      6.92%     84.73% |          18      5.19%     89.91% |          35     10.09%    100.00% (Unspecified)
system.caches.L2Cache_Controller.WB_Data_clean::total          347                       (Unspecified)
system.caches.L2Cache_Controller.Ack     |        6971     17.17%     17.17% |        6216     15.31%     32.49% |        5000     12.32%     44.80% |        4482     11.04%     55.84% |        4389     10.81%     66.66% |        4438     10.93%     77.59% |        4171     10.28%     87.86% |        4926     12.14%    100.00% (Unspecified)
system.caches.L2Cache_Controller.Ack::total        40593                       (Unspecified)
system.caches.L2Cache_Controller.Ack_all |       31007     12.30%     12.30% |       31993     12.69%     24.99% |       31301     12.42%     37.41% |       31647     12.55%     49.97% |       31932     12.67%     62.63% |       31987     12.69%     75.32% |       31243     12.39%     87.72% |       30961     12.28%    100.00% (Unspecified)
system.caches.L2Cache_Controller.Ack_all::total       252071                       (Unspecified)
system.caches.L2Cache_Controller.Unblock |         260     30.13%     30.13% |         157     18.19%     48.32% |          39      4.52%     52.84% |          35      4.06%     56.89% |          29      3.36%     60.25% |          24      2.78%     63.04% |         285     33.02%     96.06% |          34      3.94%    100.00% (Unspecified)
system.caches.L2Cache_Controller.Unblock::total          863                       (Unspecified)
system.caches.L2Cache_Controller.Exclusive_Unblock |      714853     12.52%     12.52% |      715128     12.52%     25.04% |      711232     12.45%     37.49% |      712909     12.48%     49.98% |      713163     12.49%     62.47% |      714888     12.52%     74.98% |      713930     12.50%     87.49% |      714624     12.51%    100.00% (Unspecified)
system.caches.L2Cache_Controller.Exclusive_Unblock::total      5710727                       (Unspecified)
system.caches.L2Cache_Controller.NP.L1_GET_INSTR |        1025     15.85%     15.85% |         946     14.63%     30.48% |         818     12.65%     43.13% |         750     11.60%     54.73% |         723     11.18%     65.91% |         712     11.01%     76.93% |         641      9.91%     86.84% |         851     13.16%    100.00% (Unspecified)
system.caches.L2Cache_Controller.NP.L1_GET_INSTR::total         6466                       (Unspecified)
system.caches.L2Cache_Controller.NP.L1_GETS |      566180     12.50%     12.50% |      566412     12.51%     25.01% |      565886     12.49%     37.50% |      566071     12.50%     50.00% |      566180     12.50%     62.50% |      566153     12.50%     75.00% |      565799     12.49%     87.50% |      566242     12.50%    100.00% (Unspecified)
system.caches.L2Cache_Controller.NP.L1_GETS::total      4528923                       (Unspecified)
system.caches.L2Cache_Controller.NP.L1_GETX |      143936     12.52%     12.52% |      143727     12.50%     25.03% |      143123     12.45%     37.48% |      143440     12.48%     49.96% |      143407     12.48%     62.44% |      143897     12.52%     74.95% |      143906     12.52%     87.47% |      143968     12.53%    100.00% (Unspecified)
system.caches.L2Cache_Controller.NP.L1_GETX::total      1149404                       (Unspecified)
system.caches.L2Cache_Controller.NP.L1_PUTX_old |           1     25.00%     25.00% |           0      0.00%     25.00% |           0      0.00%     25.00% |           2     50.00%     75.00% |           0      0.00%     75.00% |           0      0.00%     75.00% |           0      0.00%     75.00% |           1     25.00%    100.00% (Unspecified)
system.caches.L2Cache_Controller.NP.L1_PUTX_old::total            4                       (Unspecified)
system.caches.L2Cache_Controller.SS.L1_GET_INSTR |        5364     10.33%     10.33% |        7077     13.63%     23.95% |        6140     11.82%     35.77% |        3657      7.04%     42.82% |        7612     14.66%     57.47% |        8789     16.92%     74.39% |        7430     14.31%     88.70% |        5870     11.30%    100.00% (Unspecified)
system.caches.L2Cache_Controller.SS.L1_GET_INSTR::total        51939                       (Unspecified)
system.caches.L2Cache_Controller.SS.L1_GETS |        9858     24.83%     24.83% |        5432     13.68%     38.51% |        5902     14.86%     53.37% |        3888      9.79%     63.16% |        3847      9.69%     72.85% |        2159      5.44%     78.29% |        2745      6.91%     85.20% |        5876     14.80%    100.00% (Unspecified)
system.caches.L2Cache_Controller.SS.L1_GETS::total        39707                       (Unspecified)
system.caches.L2Cache_Controller.SS.L1_GETX |         129     67.89%     67.89% |           0      0.00%     67.89% |           0      0.00%     67.89% |           0      0.00%     67.89% |           0      0.00%     67.89% |           0      0.00%     67.89% |          61     32.11%    100.00% |           0      0.00%    100.00% (Unspecified)
system.caches.L2Cache_Controller.SS.L1_GETX::total          190                       (Unspecified)
system.caches.L2Cache_Controller.SS.L1_UPGRADE |          27      8.77%      8.77% |          79     25.65%     34.42% |           0      0.00%     34.42% |           0      0.00%     34.42% |           1      0.32%     34.74% |           0      0.00%     34.74% |         201     65.26%    100.00% |           0      0.00%    100.00% (Unspecified)
system.caches.L2Cache_Controller.SS.L1_UPGRADE::total          308                       (Unspecified)
system.caches.L2Cache_Controller.SS.L2_Replacement |          12     54.55%     54.55% |           5     22.73%     77.27% |           0      0.00%     77.27% |           0      0.00%     77.27% |           0      0.00%     77.27% |           0      0.00%     77.27% |           5     22.73%    100.00% |           0      0.00%    100.00% (Unspecified)
system.caches.L2Cache_Controller.SS.L2_Replacement::total           22                       (Unspecified)
system.caches.L2Cache_Controller.SS.L2_Replacement_clean |        1151     16.43%     16.43% |        1045     14.92%     31.34% |         888     12.67%     44.02% |         805     11.49%     55.51% |         777     11.09%     66.60% |         760     10.85%     77.45% |         671      9.58%     87.03% |         909     12.97%    100.00% (Unspecified)
system.caches.L2Cache_Controller.SS.L2_Replacement_clean::total         7006                       (Unspecified)
system.caches.L2Cache_Controller.M.L1_GET_INSTR |           0      0.00%      0.00% |           3     18.75%     18.75% |           3     18.75%     37.50% |           0      0.00%     37.50% |           2     12.50%     50.00% |           3     18.75%     68.75% |           3     18.75%     87.50% |           2     12.50%    100.00% (Unspecified)
system.caches.L2Cache_Controller.M.L1_GET_INSTR::total           16                       (Unspecified)
system.caches.L2Cache_Controller.M.L1_GETS |        2904     13.85%     13.85% |        3306     15.77%     29.62% |        2017      9.62%     39.24% |        2361     11.26%     50.50% |        2661     12.69%     63.19% |        2418     11.53%     74.72% |        2544     12.13%     86.86% |        2756     13.14%    100.00% (Unspecified)
system.caches.L2Cache_Controller.M.L1_GETS::total        20967                       (Unspecified)
system.caches.L2Cache_Controller.M.L1_GETX |        1708     15.40%     15.40% |        1625     14.65%     30.05% |         229      2.06%     32.11% |        1053      9.49%     41.61% |         936      8.44%     50.05% |        2435     21.95%     72.00% |        1426     12.86%     84.85% |        1680     15.15%    100.00% (Unspecified)
system.caches.L2Cache_Controller.M.L1_GETX::total        11092                       (Unspecified)
system.caches.L2Cache_Controller.M.L2_Replacement |      140060     12.54%     12.54% |      139636     12.50%     25.04% |      139352     12.47%     37.51% |      139425     12.48%     49.99% |      139444     12.48%     62.48% |      139662     12.50%     74.98% |      139568     12.49%     87.47% |      139926     12.53%    100.00% (Unspecified)
system.caches.L2Cache_Controller.M.L2_Replacement::total      1117073                       (Unspecified)
system.caches.L2Cache_Controller.M.L2_Replacement_clean |      527139     12.52%     12.52% |      526397     12.50%     25.01% |      526659     12.50%     37.52% |      526311     12.50%     50.02% |      526278     12.50%     62.51% |      525858     12.49%     75.00% |      526387     12.50%     87.49% |      526678     12.51%    100.00% (Unspecified)
system.caches.L2Cache_Controller.M.L2_Replacement_clean::total      4211707                       (Unspecified)
system.caches.L2Cache_Controller.MT.L1_GETS |         260     30.13%     30.13% |         157     18.19%     48.32% |          39      4.52%     52.84% |          35      4.06%     56.89% |          29      3.36%     60.25% |          24      2.78%     63.04% |         285     33.02%     96.06% |          34      3.94%    100.00% (Unspecified)
system.caches.L2Cache_Controller.MT.L1_GETS::total          863                       (Unspecified)
system.caches.L2Cache_Controller.MT.L1_GETX |           1     50.00%     50.00% |           0      0.00%     50.00% |           0      0.00%     50.00% |           0      0.00%     50.00% |           0      0.00%     50.00% |           0      0.00%     50.00% |           1     50.00%    100.00% |           0      0.00%    100.00% (Unspecified)
system.caches.L2Cache_Controller.MT.L1_GETX::total            2                       (Unspecified)
system.caches.L2Cache_Controller.MT.L1_PUTX |      671959     12.53%     12.53% |      671104     12.52%     25.05% |      668406     12.47%     37.51% |      669299     12.48%     49.99% |      669481     12.49%     62.48% |      670540     12.51%     74.99% |      670088     12.50%     87.48% |      671196     12.52%    100.00% (Unspecified)
system.caches.L2Cache_Controller.MT.L1_PUTX::total      5362073                       (Unspecified)
system.caches.L2Cache_Controller.MT.L2_Replacement |         363     16.01%     16.01% |         280     12.35%     28.35% |          72      3.17%     31.53% |         252     11.11%     42.64% |         185      8.16%     50.79% |         452     19.93%     70.72% |         273     12.04%     82.76% |         391     17.24%    100.00% (Unspecified)
system.caches.L2Cache_Controller.MT.L2_Replacement::total         2268                       (Unspecified)
system.caches.L2Cache_Controller.MT.L2_Replacement_clean |       42416     12.23%     12.23% |       43722     12.61%     24.84% |       42856     12.36%     37.20% |       43468     12.54%     49.74% |       43626     12.58%     62.32% |       44030     12.70%     75.02% |       43442     12.53%     87.55% |       43157     12.45%    100.00% (Unspecified)
system.caches.L2Cache_Controller.MT.L2_Replacement_clean::total       346717                       (Unspecified)
system.caches.L2Cache_Controller.M_I.L1_GET_INSTR |           0      0.00%      0.00% |           0      0.00%      0.00% |           0      0.00%      0.00% |           0      0.00%      0.00% |           4     30.77%     30.77% |           8     61.54%     92.31% |           1      7.69%    100.00% |           0      0.00%    100.00% (Unspecified)
system.caches.L2Cache_Controller.M_I.L1_GET_INSTR::total           13                       (Unspecified)
system.caches.L2Cache_Controller.M_I.L1_GETS |          14     11.38%     11.38% |          10      8.13%     19.51% |          14     11.38%     30.89% |          10      8.13%     39.02% |          16     13.01%     52.03% |          12      9.76%     61.79% |          16     13.01%     74.80% |          31     25.20%    100.00% (Unspecified)
system.caches.L2Cache_Controller.M_I.L1_GETS::total          123                       (Unspecified)
system.caches.L2Cache_Controller.M_I.L1_GETX |          13     19.70%     19.70% |           7     10.61%     30.30% |           7     10.61%     40.91% |           7     10.61%     51.52% |           9     13.64%     65.15% |           6      9.09%     74.24% |          12     18.18%     92.42% |           5      7.58%    100.00% (Unspecified)
system.caches.L2Cache_Controller.M_I.L1_GETX::total           66                       (Unspecified)
system.caches.L2Cache_Controller.M_I.Mem_Ack |      711141     12.51%     12.51% |      711085     12.51%     25.02% |      709827     12.49%     37.50% |      710261     12.49%     50.00% |      710310     12.49%     62.49% |      710762     12.50%     75.00% |      710346     12.50%     87.49% |      711061     12.51%    100.00% (Unspecified)
system.caches.L2Cache_Controller.M_I.Mem_Ack::total      5684793                       (Unspecified)
system.caches.L2Cache_Controller.MT_I.WB_Data |         363     16.03%     16.03% |         280     12.37%     28.40% |          72      3.18%     31.58% |         251     11.09%     42.67% |         184      8.13%     50.80% |         451     19.92%     70.72% |         272     12.01%     82.73% |         391     17.27%    100.00% (Unspecified)
system.caches.L2Cache_Controller.MT_I.WB_Data::total         2264                       (Unspecified)
system.caches.L2Cache_Controller.MT_I.Ack_all |           0      0.00%      0.00% |           0      0.00%      0.00% |           0      0.00%      0.00% |           1     25.00%     25.00% |           1     25.00%     50.00% |           1     25.00%     75.00% |           1     25.00%    100.00% |           0      0.00%    100.00% (Unspecified)
system.caches.L2Cache_Controller.MT_I.Ack_all::total            4                       (Unspecified)
system.caches.L2Cache_Controller.MCT_I.L1_PUTX_old |           1     25.00%     25.00% |           0      0.00%     25.00% |           0      0.00%     25.00% |           2     50.00%     75.00% |           0      0.00%     75.00% |           0      0.00%     75.00% |           0      0.00%     75.00% |           1     25.00%    100.00% (Unspecified)
system.caches.L2Cache_Controller.MCT_I.L1_PUTX_old::total            4                       (Unspecified)
system.caches.L2Cache_Controller.MCT_I.WB_Data |       12571     12.36%     12.36% |       12779     12.57%     24.93% |       12443     12.24%     37.17% |       12626     12.42%     49.59% |       12472     12.27%     61.85% |       12804     12.59%     74.45% |       12876     12.66%     87.11% |       13104     12.89%    100.00% (Unspecified)
system.caches.L2Cache_Controller.MCT_I.WB_Data::total       101675                       (Unspecified)
system.caches.L2Cache_Controller.MCT_I.WB_Data_clean |           1     33.33%     33.33% |           0      0.00%     33.33% |           0      0.00%     33.33% |           1     33.33%     66.67% |           0      0.00%     66.67% |           0      0.00%     66.67% |           0      0.00%     66.67% |           1     33.33%    100.00% (Unspecified)
system.caches.L2Cache_Controller.MCT_I.WB_Data_clean::total            3                       (Unspecified)
system.caches.L2Cache_Controller.MCT_I.Ack_all |       29844     12.18%     12.18% |       30943     12.63%     24.81% |       30413     12.41%     37.22% |       30841     12.59%     49.80% |       31154     12.71%     62.52% |       31226     12.74%     75.26% |       30566     12.47%     87.74% |       30052     12.26%    100.00% (Unspecified)
system.caches.L2Cache_Controller.MCT_I.Ack_all::total       245039                       (Unspecified)
system.caches.L2Cache_Controller.I_I.Ack |        6887     17.03%     17.03% |        6181     15.28%     32.32% |        5000     12.36%     44.68% |        4482     11.08%     55.76% |        4389     10.85%     66.62% |        4438     10.97%     77.59% |        4136     10.23%     87.82% |        4926     12.18%    100.00% (Unspecified)
system.caches.L2Cache_Controller.I_I.Ack::total        40439                       (Unspecified)
system.caches.L2Cache_Controller.I_I.Ack_all |        1151     16.43%     16.43% |        1045     14.92%     31.34% |         888     12.67%     44.02% |         805     11.49%     55.51% |         777     11.09%     66.60% |         760     10.85%     77.45% |         671      9.58%     87.03% |         909     12.97%    100.00% (Unspecified)
system.caches.L2Cache_Controller.I_I.Ack_all::total         7006                       (Unspecified)
system.caches.L2Cache_Controller.S_I.Ack |          84     54.55%     54.55% |          35     22.73%     77.27% |           0      0.00%     77.27% |           0      0.00%     77.27% |           0      0.00%     77.27% |           0      0.00%     77.27% |          35     22.73%    100.00% |           0      0.00%    100.00% (Unspecified)
system.caches.L2Cache_Controller.S_I.Ack::total          154                       (Unspecified)
system.caches.L2Cache_Controller.S_I.Ack_all |          12     54.55%     54.55% |           5     22.73%     77.27% |           0      0.00%     77.27% |           0      0.00%     77.27% |           0      0.00%     77.27% |           0      0.00%     77.27% |           5     22.73%    100.00% |           0      0.00%    100.00% (Unspecified)
system.caches.L2Cache_Controller.S_I.Ack_all::total           22                       (Unspecified)
system.caches.L2Cache_Controller.ISS.L1_GETS |          28     19.58%     19.58% |          21     14.69%     34.27% |          23     16.08%     50.35% |          13      9.09%     59.44% |          22     15.38%     74.83% |          14      9.79%     84.62% |           5      3.50%     88.11% |          17     11.89%    100.00% (Unspecified)
system.caches.L2Cache_Controller.ISS.L1_GETS::total          143                       (Unspecified)
system.caches.L2Cache_Controller.ISS.Mem_Data |      566149     12.50%     12.50% |      566391     12.51%     25.01% |      565863     12.49%     37.50% |      566058     12.50%     50.00% |      566158     12.50%     62.50% |      566138     12.50%     75.00% |      565791     12.49%     87.50% |      566220     12.50%    100.00% (Unspecified)
system.caches.L2Cache_Controller.ISS.Mem_Data::total      4528768                       (Unspecified)
system.caches.L2Cache_Controller.IS.L1_GET_INSTR |         705     14.77%     14.77% |         709     14.85%     29.62% |         589     12.34%     41.97% |         520     10.89%     52.86% |         571     11.96%     64.82% |         647     13.56%     78.38% |         492     10.31%     88.69% |         540     11.31%    100.00% (Unspecified)
system.caches.L2Cache_Controller.IS.L1_GET_INSTR::total         4773                       (Unspecified)
system.caches.L2Cache_Controller.IS.L1_GETS |          49     35.77%     35.77% |          20     14.60%     50.36% |          12      8.76%     59.12% |          12      8.76%     67.88% |           8      5.84%     73.72% |          19     13.87%     87.59% |           2      1.46%     89.05% |          15     10.95%    100.00% (Unspecified)
system.caches.L2Cache_Controller.IS.L1_GETS::total          137                       (Unspecified)
system.caches.L2Cache_Controller.IS.Mem_Data |        1053     15.93%     15.93% |         967     14.63%     30.56% |         841     12.73%     43.29% |         763     11.54%     54.83% |         745     11.27%     66.11% |         726     10.99%     77.09% |         646      9.77%     86.87% |         868     13.13%    100.00% (Unspecified)
system.caches.L2Cache_Controller.IS.Mem_Data::total         6609                       (Unspecified)
system.caches.L2Cache_Controller.IM.Mem_Data |      143935     12.52%     12.52% |      143727     12.50%     25.03% |      143123     12.45%     37.48% |      143437     12.48%     49.96% |      143407     12.48%     62.44% |      143897     12.52%     74.95% |      143906     12.52%     87.47% |      143968     12.53%    100.00% (Unspecified)
system.caches.L2Cache_Controller.IM.Mem_Data::total      1149400                       (Unspecified)
system.caches.L2Cache_Controller.SS_MB.L1_GETS |           0      0.00%      0.00% |           0      0.00%      0.00% |           0      0.00%      0.00% |           0      0.00%      0.00% |           0      0.00%      0.00% |           0      0.00%      0.00% |         295    100.00%    100.00% |           0      0.00%    100.00% (Unspecified)
system.caches.L2Cache_Controller.SS_MB.L1_GETS::total          295                       (Unspecified)
system.caches.L2Cache_Controller.SS_MB.Exclusive_Unblock |         156     31.33%     31.33% |          79     15.86%     47.19% |           0      0.00%     47.19% |           0      0.00%     47.19% |           1      0.20%     47.39% |           0      0.00%     47.39% |         262     52.61%    100.00% |           0      0.00%    100.00% (Unspecified)
system.caches.L2Cache_Controller.SS_MB.Exclusive_Unblock::total          498                       (Unspecified)
system.caches.L2Cache_Controller.MT_MB.L1_GETS |           1    100.00%    100.00% |           0      0.00%    100.00% |           0      0.00%    100.00% |           0      0.00%    100.00% |           0      0.00%    100.00% |           0      0.00%    100.00% |           0      0.00%    100.00% |           0      0.00%    100.00% (Unspecified)
system.caches.L2Cache_Controller.MT_MB.L1_GETS::total            1                       (Unspecified)
system.caches.L2Cache_Controller.MT_MB.Exclusive_Unblock |      714697     12.52%     12.52% |      715049     12.52%     25.04% |      711232     12.46%     37.49% |      712909     12.48%     49.98% |      713162     12.49%     62.47% |      714888     12.52%     74.99% |      713668     12.50%     87.49% |      714624     12.51%    100.00% (Unspecified)
system.caches.L2Cache_Controller.MT_MB.Exclusive_Unblock::total      5710229                       (Unspecified)
system.caches.L2Cache_Controller.MT_IIB.L1_GETS |          13      9.09%      9.09% |           5      3.50%     12.59% |           0      0.00%     12.59% |           0      0.00%     12.59% |           0      0.00%     12.59% |           0      0.00%     12.59% |         124     86.71%     99.30% |           1      0.70%    100.00% (Unspecified)
system.caches.L2Cache_Controller.MT_IIB.L1_GETS::total          143                       (Unspecified)
system.caches.L2Cache_Controller.MT_IIB.WB_Data |         168     32.37%     32.37% |          83     15.99%     48.36% |           0      0.00%     48.36% |           0      0.00%     48.36% |           1      0.19%     48.55% |           0      0.00%     48.55% |         267     51.45%    100.00% |           0      0.00%    100.00% (Unspecified)
system.caches.L2Cache_Controller.MT_IIB.WB_Data::total          519                       (Unspecified)
system.caches.L2Cache_Controller.MT_IIB.WB_Data_clean |          92     26.74%     26.74% |          74     21.51%     48.26% |          39     11.34%     59.59% |          35     10.17%     69.77% |          28      8.14%     77.91% |          24      6.98%     84.88% |          18      5.23%     90.12% |          34      9.88%    100.00% (Unspecified)
system.caches.L2Cache_Controller.MT_IIB.WB_Data_clean::total          344                       (Unspecified)
system.caches.L2Cache_Controller.MT_SB.L1_GETS |           4     33.33%     33.33% |           4     33.33%     66.67% |           0      0.00%     66.67% |           0      0.00%     66.67% |           0      0.00%     66.67% |           0      0.00%     66.67% |           4     33.33%    100.00% |           0      0.00%    100.00% (Unspecified)
system.caches.L2Cache_Controller.MT_SB.L1_GETS::total           12                       (Unspecified)
system.caches.L2Cache_Controller.MT_SB.L1_UPGRADE |           1      1.47%      1.47% |           0      0.00%      1.47% |           0      0.00%      1.47% |           0      0.00%      1.47% |           0      0.00%      1.47% |           0      0.00%      1.47% |          67     98.53%    100.00% |           0      0.00%    100.00% (Unspecified)
system.caches.L2Cache_Controller.MT_SB.L1_UPGRADE::total           68                       (Unspecified)
system.caches.L2Cache_Controller.MT_SB.Unblock |         260     30.13%     30.13% |         157     18.19%     48.32% |          39      4.52%     52.84% |          35      4.06%     56.89% |          29      3.36%     60.25% |          24      2.78%     63.04% |         285     33.02%     96.06% |          34      3.94%    100.00% (Unspecified)
system.caches.L2Cache_Controller.MT_SB.Unblock::total          863                       (Unspecified)
system.caches.RequestType.LD.latency_hist_seqr::bucket_size         1024                       (Unspecified)
system.caches.RequestType.LD.latency_hist_seqr::max_bucket        10239                       (Unspecified)
system.caches.RequestType.LD.latency_hist_seqr::samples     69170437                       (Unspecified)
system.caches.RequestType.LD.latency_hist_seqr::mean    78.322062                       (Unspecified)
system.caches.RequestType.LD.latency_hist_seqr::gmean     1.588238                       (Unspecified)
system.caches.RequestType.LD.latency_hist_seqr::stdev   350.261428                       (Unspecified)
system.caches.RequestType.LD.latency_hist_seqr |    67276255     97.26%     97.26% |     1244856      1.80%     99.06% |      513966      0.74%     99.80% |      116903      0.17%     99.97% |       17279      0.02%    100.00% |        1156      0.00%    100.00% |          22      0.00%    100.00% |           0      0.00%    100.00% |           0      0.00%    100.00% |           0      0.00%    100.00% (Unspecified)
system.caches.RequestType.LD.latency_hist_seqr::total     69170437                       (Unspecified)
system.caches.RequestType.LD.hit_latency_hist_seqr::bucket_size            1                       (Unspecified)
system.caches.RequestType.LD.hit_latency_hist_seqr::max_bucket            9                       (Unspecified)
system.caches.RequestType.LD.hit_latency_hist_seqr::samples     64579709                       (Unspecified)
system.caches.RequestType.LD.hit_latency_hist_seqr::mean     1.012211                       (Unspecified)
system.caches.RequestType.LD.hit_latency_hist_seqr::gmean     1.008500                       (Unspecified)
system.caches.RequestType.LD.hit_latency_hist_seqr::stdev     0.109826                       (Unspecified)
system.caches.RequestType.LD.hit_latency_hist_seqr |           0      0.00%      0.00% |    63791133     98.78%     98.78% |      788576      1.22%    100.00% |           0      0.00%    100.00% |           0      0.00%    100.00% |           0      0.00%    100.00% |           0      0.00%    100.00% |           0      0.00%    100.00% |           0      0.00%    100.00% |           0      0.00%    100.00% (Unspecified)
system.caches.RequestType.LD.hit_latency_hist_seqr::total     64579709                       (Unspecified)
system.caches.RequestType.LD.miss_latency_hist_seqr::bucket_size         1024                       (Unspecified)
system.caches.RequestType.LD.miss_latency_hist_seqr::max_bucket        10239                       (Unspecified)
system.caches.RequestType.LD.miss_latency_hist_seqr::samples      4590728                       (Unspecified)
system.caches.RequestType.LD.miss_latency_hist_seqr::mean  1165.872383                       (Unspecified)
system.caches.RequestType.LD.miss_latency_hist_seqr::gmean   945.299550                       (Unspecified)
system.caches.RequestType.LD.miss_latency_hist_seqr::stdev   762.675200                       (Unspecified)
system.caches.RequestType.LD.miss_latency_hist_seqr |     2696546     58.74%     58.74% |     1244856     27.12%     85.86% |      513966     11.20%     97.05% |      116903      2.55%     99.60% |       17279      0.38%     99.97% |        1156      0.03%    100.00% |          22      0.00%    100.00% |           0      0.00%    100.00% |           0      0.00%    100.00% |           0      0.00%    100.00% (Unspecified)
system.caches.RequestType.LD.miss_latency_hist_seqr::total      4590728                       (Unspecified)
system.caches.RequestType.ST.latency_hist_seqr::bucket_size         1024                       (Unspecified)
system.caches.RequestType.ST.latency_hist_seqr::max_bucket        10239                       (Unspecified)
system.caches.RequestType.ST.latency_hist_seqr::samples     27406220                       (Unspecified)
system.caches.RequestType.ST.latency_hist_seqr::mean    47.785607                       (Unspecified)
system.caches.RequestType.ST.latency_hist_seqr::gmean     1.362708                       (Unspecified)
system.caches.RequestType.ST.latency_hist_seqr::stdev   272.856029                       (Unspecified)
system.caches.RequestType.ST.latency_hist_seqr |    26962988     98.38%     98.38% |      289366      1.06%     99.44% |      121030      0.44%     99.88% |       28241      0.10%     99.98% |        4271      0.02%    100.00% |         322      0.00%    100.00% |           2      0.00%    100.00% |           0      0.00%    100.00% |           0      0.00%    100.00% |           0      0.00%    100.00% (Unspecified)
system.caches.RequestType.ST.latency_hist_seqr::total     27406220                       (Unspecified)
system.caches.RequestType.ST.hit_latency_hist_seqr::bucket_size          512                       (Unspecified)
system.caches.RequestType.ST.hit_latency_hist_seqr::max_bucket         5119                       (Unspecified)
system.caches.RequestType.ST.hit_latency_hist_seqr::samples     26253196                       (Unspecified)
system.caches.RequestType.ST.hit_latency_hist_seqr::mean     1.038238                       (Unspecified)
system.caches.RequestType.ST.hit_latency_hist_seqr::gmean     1.024253                       (Unspecified)
system.caches.RequestType.ST.hit_latency_hist_seqr::stdev     1.997797                       (Unspecified)
system.caches.RequestType.ST.hit_latency_hist_seqr |    26253105    100.00%    100.00% |          65      0.00%    100.00% |          16      0.00%    100.00% |           7      0.00%    100.00% |           2      0.00%    100.00% |           0      0.00%    100.00% |           1      0.00%    100.00% |           0      0.00%    100.00% |           0      0.00%    100.00% |           0      0.00%    100.00% (Unspecified)
system.caches.RequestType.ST.hit_latency_hist_seqr::total     26253196                       (Unspecified)
system.caches.RequestType.ST.miss_latency_hist_seqr::bucket_size         1024                       (Unspecified)
system.caches.RequestType.ST.miss_latency_hist_seqr::max_bucket        10239                       (Unspecified)
system.caches.RequestType.ST.miss_latency_hist_seqr::samples      1153024                       (Unspecified)
system.caches.RequestType.ST.miss_latency_hist_seqr::mean  1112.176150                       (Unspecified)
system.caches.RequestType.ST.miss_latency_hist_seqr::gmean   907.102841                       (Unspecified)
system.caches.RequestType.ST.miss_latency_hist_seqr::stdev   766.052385                       (Unspecified)
system.caches.RequestType.ST.miss_latency_hist_seqr |      709818     61.56%     61.56% |      289343     25.09%     86.66% |      121028     10.50%     97.15% |       28240      2.45%     99.60% |        4271      0.37%     99.97% |         322      0.03%    100.00% |           2      0.00%    100.00% |           0      0.00%    100.00% |           0      0.00%    100.00% |           0      0.00%    100.00% (Unspecified)
system.caches.RequestType.ST.miss_latency_hist_seqr::total      1153024                       (Unspecified)
system.caches.RequestType.IFETCH.latency_hist_seqr::bucket_size          512                       (Unspecified)
system.caches.RequestType.IFETCH.latency_hist_seqr::max_bucket         5119                       (Unspecified)
system.caches.RequestType.IFETCH.latency_hist_seqr::samples     18513415                       (Unspecified)
system.caches.RequestType.IFETCH.latency_hist_seqr::mean     1.217376                       (Unspecified)
system.caches.RequestType.IFETCH.latency_hist_seqr::gmean     1.010701                       (Unspecified)
system.caches.RequestType.IFETCH.latency_hist_seqr::stdev    10.186887                       (Unspecified)
system.caches.RequestType.IFETCH.latency_hist_seqr |    18512650    100.00%    100.00% |         438      0.00%    100.00% |         164      0.00%    100.00% |         108      0.00%    100.00% |          25      0.00%    100.00% |          16      0.00%    100.00% |           8      0.00%    100.00% |           5      0.00%    100.00% |           1      0.00%    100.00% |           0      0.00%    100.00% (Unspecified)
system.caches.RequestType.IFETCH.latency_hist_seqr::total     18513415                       (Unspecified)
system.caches.RequestType.IFETCH.hit_latency_hist_seqr::bucket_size            1                       (Unspecified)
system.caches.RequestType.IFETCH.hit_latency_hist_seqr::max_bucket            9                       (Unspecified)
system.caches.RequestType.IFETCH.hit_latency_hist_seqr::samples     18450221                       (Unspecified)
system.caches.RequestType.IFETCH.hit_latency_hist_seqr::mean     1.000000                       (Unspecified)
system.caches.RequestType.IFETCH.hit_latency_hist_seqr::gmean     1.000000                       (Unspecified)
system.caches.RequestType.IFETCH.hit_latency_hist_seqr::stdev     0.000466                       (Unspecified)
system.caches.RequestType.IFETCH.hit_latency_hist_seqr |           0      0.00%      0.00% |    18450217    100.00%    100.00% |           4      0.00%    100.00% |           0      0.00%    100.00% |           0      0.00%    100.00% |           0      0.00%    100.00% |           0      0.00%    100.00% |           0      0.00%    100.00% |           0      0.00%    100.00% |           0      0.00%    100.00% (Unspecified)
system.caches.RequestType.IFETCH.hit_latency_hist_seqr::total     18450221                       (Unspecified)
system.caches.RequestType.IFETCH.miss_latency_hist_seqr::bucket_size          512                       (Unspecified)
system.caches.RequestType.IFETCH.miss_latency_hist_seqr::max_bucket         5119                       (Unspecified)
system.caches.RequestType.IFETCH.miss_latency_hist_seqr::samples        63194                       (Unspecified)
system.caches.RequestType.IFETCH.miss_latency_hist_seqr::mean    64.682612                       (Unspecified)
system.caches.RequestType.IFETCH.miss_latency_hist_seqr::gmean    22.608345                       (Unspecified)
system.caches.RequestType.IFETCH.miss_latency_hist_seqr::stdev   162.358205                       (Unspecified)
system.caches.RequestType.IFETCH.miss_latency_hist_seqr |       62429     98.79%     98.79% |         438      0.69%     99.48% |         164      0.26%     99.74% |         108      0.17%     99.91% |          25      0.04%     99.95% |          16      0.03%     99.98% |           8      0.01%     99.99% |           5      0.01%    100.00% |           1      0.00%    100.00% |           0      0.00%    100.00% (Unspecified)
system.caches.RequestType.IFETCH.miss_latency_hist_seqr::total        63194                       (Unspecified)
system.caches.RequestType.RMW_Read.latency_hist_seqr::bucket_size          512                       (Unspecified)
system.caches.RequestType.RMW_Read.latency_hist_seqr::max_bucket         5119                       (Unspecified)
system.caches.RequestType.RMW_Read.latency_hist_seqr::samples       163522                       (Unspecified)
system.caches.RequestType.RMW_Read.latency_hist_seqr::mean    12.168326                       (Unspecified)
system.caches.RequestType.RMW_Read.latency_hist_seqr::gmean     1.303365                       (Unspecified)
system.caches.RequestType.RMW_Read.latency_hist_seqr::stdev   113.088253                       (Unspecified)
system.caches.RequestType.RMW_Read.latency_hist_seqr |      161911     99.01%     99.01% |        1132      0.69%     99.71% |         275      0.17%     99.88% |          96      0.06%     99.93% |          61      0.04%     99.97% |          29      0.02%     99.99% |          15      0.01%    100.00% |           1      0.00%    100.00% |           2      0.00%    100.00% |           0      0.00%    100.00% (Unspecified)
system.caches.RequestType.RMW_Read.latency_hist_seqr::total       163522                       (Unspecified)
system.caches.RequestType.RMW_Read.hit_latency_hist_seqr::bucket_size          512                       (Unspecified)
system.caches.RequestType.RMW_Read.hit_latency_hist_seqr::max_bucket         5119                       (Unspecified)
system.caches.RequestType.RMW_Read.hit_latency_hist_seqr::samples       156821                       (Unspecified)
system.caches.RequestType.RMW_Read.hit_latency_hist_seqr::mean     3.253773                       (Unspecified)
system.caches.RequestType.RMW_Read.hit_latency_hist_seqr::gmean     1.124239                       (Unspecified)
system.caches.RequestType.RMW_Read.hit_latency_hist_seqr::stdev    55.083789                       (Unspecified)
system.caches.RequestType.RMW_Read.hit_latency_hist_seqr |      156549     99.83%     99.83% |         165      0.11%     99.93% |          56      0.04%     99.97% |          19      0.01%     99.98% |          19      0.01%     99.99% |           7      0.00%    100.00% |           5      0.00%    100.00% |           0      0.00%    100.00% |           1      0.00%    100.00% |           0      0.00%    100.00% (Unspecified)
system.caches.RequestType.RMW_Read.hit_latency_hist_seqr::total       156821                       (Unspecified)
system.caches.RequestType.RMW_Read.miss_latency_hist_seqr::bucket_size          512                       (Unspecified)
system.caches.RequestType.RMW_Read.miss_latency_hist_seqr::max_bucket         5119                       (Unspecified)
system.caches.RequestType.RMW_Read.miss_latency_hist_seqr::samples         6701                       (Unspecified)
system.caches.RequestType.RMW_Read.miss_latency_hist_seqr::mean   220.792270                       (Unspecified)
system.caches.RequestType.RMW_Read.miss_latency_hist_seqr::gmean    41.465555                       (Unspecified)
system.caches.RequestType.RMW_Read.miss_latency_hist_seqr::stdev   442.401679                       (Unspecified)
system.caches.RequestType.RMW_Read.miss_latency_hist_seqr |        5362     80.02%     80.02% |         967     14.43%     94.45% |         219      3.27%     97.72% |          77      1.15%     98.87% |          42      0.63%     99.49% |          22      0.33%     99.82% |          10      0.15%     99.97% |           1      0.01%     99.99% |           1      0.01%    100.00% |           0      0.00%    100.00% (Unspecified)
system.caches.RequestType.RMW_Read.miss_latency_hist_seqr::total         6701                       (Unspecified)
system.caches.RequestType.Locked_RMW_Read.latency_hist_seqr::bucket_size          512                       (Unspecified)
system.caches.RequestType.Locked_RMW_Read.latency_hist_seqr::max_bucket         5119                       (Unspecified)
[...]
system.o3Cpu7.iew.squashCycles                   7125                       # Number of cycles IEW is squashing (Cycle)
system.o3Cpu7.iew.blockCycles                  851647                       # Number of cycles IEW is blocking (Cycle)
system.o3Cpu7.iew.unblockCycles              46830986                       # Number of cycles IEW is unblocking (Cycle)
system.o3Cpu7.iew.dispatchedInsts            46940643                       # Number of instructions dispatched to IQ (Count)
system.o3Cpu7.iew.dispSquashedInsts              1639                       # Number of squashed instructions skipped by dispatch (Count)
system.o3Cpu7.iew.dispLoadInsts              15598568                       # Number of dispatched load instructions (Count)
system.o3Cpu7.iew.dispStoreInsts              3487640                       # Number of dispatched store instructions (Count)
system.o3Cpu7.iew.dispNonSpecInsts               3411                       # Number of dispatched non-speculative instructions (Count)
system.o3Cpu7.iew.iqFullEvents                   1783                       # Number of times the IQ has become full, causing a stall (Count)
system.o3Cpu7.iew.lsqFullEvents              46826997                       # Number of times the LSQ has become full, causing a stall (Count)
system.o3Cpu7.iew.memOrderViolationEvents          900                       # Number of memory order violations (Count)
system.o3Cpu7.iew.predictedTakenIncorrect         5164                       # Number of branches that were predicted taken incorrectly (Count)
system.o3Cpu7.iew.predictedNotTakenIncorrect          911                       # Number of branches that were predicted not taken incorrectly (Count)
system.o3Cpu7.iew.branchMispredicts              6075                       # Number of branch mispredicts detected at execute (Count)
system.o3Cpu7.iew.instsToCommit              46852042                       # Cumulative count of insts sent to commit (Count)
system.o3Cpu7.iew.writebackCount             46843585                       # Cumulative count of insts written-back (Count)
system.o3Cpu7.iew.producerInst               37100606                       # Number of instructions producing a value (Count)
system.o3Cpu7.iew.consumerInst               59341705                       # Number of instructions consuming a value (Count)
system.o3Cpu7.iew.wbRate                     0.112344                       # Insts written-back per cycle ((Count/Cycle))
system.o3Cpu7.iew.wbFanout                   0.625203                       # Average fanout of values written-back ((Count/Count))
system.o3Cpu7.interrupts.clk_domain.clock         3200                       # Clock period in ticks (Tick)
system.o3Cpu7.lsq0.forwLoads                    11574                       # Number of loads that had data forwarded from stores (Count)
system.o3Cpu7.lsq0.squashedLoads                60484                       # Number of loads squashed (Count)
system.o3Cpu7.lsq0.ignoredResponses                13                       # Number of memory responses ignored because the instruction is squashed (Count)
system.o3Cpu7.lsq0.memOrderViolation              900                       # Number of memory ordering violations (Count)
system.o3Cpu7.lsq0.squashedStores               10106                       # Number of stores squashed (Count)
system.o3Cpu7.lsq0.rescheduledLoads                73                       # Number of loads that were rescheduled (Count)
system.o3Cpu7.lsq0.blockedByCache                2470                       # Number of times an access to memory failed due to the cache being blocked (Count)
system.o3Cpu7.lsq0.loadToUse::samples        15538052                       # Distribution of cycle latency between the first time a load is issued and its completion (Unspecified)
system.o3Cpu7.lsq0.loadToUse::mean         176.226461                       # Distribution of cycle latency between the first time a load is issued and its completion (Unspecified)
system.o3Cpu7.lsq0.loadToUse::stdev        510.784697                       # Distribution of cycle latency between the first time a load is issued and its completion (Unspecified)
system.o3Cpu7.lsq0.loadToUse::0-9            13194462     84.92%     84.92% # Distribution of cycle latency between the first time a load is issued and its completion (Unspecified)
system.o3Cpu7.lsq0.loadToUse::10-19              5180      0.03%     84.95% # Distribution of cycle latency between the first time a load is issued and its completion (Unspecified)
system.o3Cpu7.lsq0.loadToUse::20-29              3976      0.03%     84.98% # Distribution of cycle latency between the first time a load is issued and its completion (Unspecified)
system.o3Cpu7.lsq0.loadToUse::30-39             28301      0.18%     85.16% # Distribution of cycle latency between the first time a load is issued and its completion (Unspecified)
system.o3Cpu7.lsq0.loadToUse::40-49             11118      0.07%     85.23% # Distribution of cycle latency between the first time a load is issued and its completion (Unspecified)
system.o3Cpu7.lsq0.loadToUse::50-59              1519      0.01%     85.24% # Distribution of cycle latency between the first time a load is issued and its completion (Unspecified)
system.o3Cpu7.lsq0.loadToUse::60-69              3138      0.02%     85.26% # Distribution of cycle latency between the first time a load is issued and its completion (Unspecified)
system.o3Cpu7.lsq0.loadToUse::70-79              3892      0.03%     85.28% # Distribution of cycle latency between the first time a load is issued and its completion (Unspecified)
system.o3Cpu7.lsq0.loadToUse::80-89              4715      0.03%     85.32% # Distribution of cycle latency between the first time a load is issued and its completion (Unspecified)
system.o3Cpu7.lsq0.loadToUse::90-99              2127      0.01%     85.33% # Distribution of cycle latency between the first time a load is issued and its completion (Unspecified)
system.o3Cpu7.lsq0.loadToUse::100-109             997      0.01%     85.34% # Distribution of cycle latency between the first time a load is issued and its completion (Unspecified)
system.o3Cpu7.lsq0.loadToUse::110-119            1553      0.01%     85.35% # Distribution of cycle latency between the first time a load is issued and its completion (Unspecified)
system.o3Cpu7.lsq0.loadToUse::120-129            1041      0.01%     85.35% # Distribution of cycle latency between the first time a load is issued and its completion (Unspecified)
system.o3Cpu7.lsq0.loadToUse::130-139            2154      0.01%     85.37% # Distribution of cycle latency between the first time a load is issued and its completion (Unspecified)
system.o3Cpu7.lsq0.loadToUse::140-149            1177      0.01%     85.37% # Distribution of cycle latency between the first time a load is issued and its completion (Unspecified)
system.o3Cpu7.lsq0.loadToUse::150-159             845      0.01%     85.38% # Distribution of cycle latency between the first time a load is issued and its completion (Unspecified)
system.o3Cpu7.lsq0.loadToUse::160-169            1130      0.01%     85.39% # Distribution of cycle latency between the first time a load is issued and its completion (Unspecified)
system.o3Cpu7.lsq0.loadToUse::170-179             777      0.01%     85.39% # Distribution of cycle latency between the first time a load is issued and its completion (Unspecified)
system.o3Cpu7.lsq0.loadToUse::180-189            2204      0.01%     85.41% # Distribution of cycle latency between the first time a load is issued and its completion (Unspecified)
system.o3Cpu7.lsq0.loadToUse::190-199            1181      0.01%     85.41% # Distribution of cycle latency between the first time a load is issued and its completion (Unspecified)
system.o3Cpu7.lsq0.loadToUse::200-209            1092      0.01%     85.42% # Distribution of cycle latency between the first time a load is issued and its completion (Unspecified)
system.o3Cpu7.lsq0.loadToUse::210-219            1204      0.01%     85.43% # Distribution of cycle latency between the first time a load is issued and its completion (Unspecified)
system.o3Cpu7.lsq0.loadToUse::220-229             897      0.01%     85.43% # Distribution of cycle latency between the first time a load is issued and its completion (Unspecified)
system.o3Cpu7.lsq0.loadToUse::230-239            4893      0.03%     85.46% # Distribution of cycle latency between the first time a load is issued and its completion (Unspecified)
system.o3Cpu7.lsq0.loadToUse::240-249            1656      0.01%     85.48% # Distribution of cycle latency between the first time a load is issued and its completion (Unspecified)
system.o3Cpu7.lsq0.loadToUse::250-259             708      0.00%     85.48% # Distribution of cycle latency between the first time a load is issued and its completion (Unspecified)
system.o3Cpu7.lsq0.loadToUse::260-269             794      0.01%     85.49% # Distribution of cycle latency between the first time a load is issued and its completion (Unspecified)
system.o3Cpu7.lsq0.loadToUse::270-279             682      0.00%     85.49% # Distribution of cycle latency between the first time a load is issued and its completion (Unspecified)
system.o3Cpu7.lsq0.loadToUse::280-289            2411      0.02%     85.51% # Distribution of cycle latency between the first time a load is issued and its completion (Unspecified)
system.o3Cpu7.lsq0.loadToUse::290-299            1721      0.01%     85.52% # Distribution of cycle latency between the first time a load is issued and its completion (Unspecified)
system.o3Cpu7.lsq0.loadToUse::overflows       2250507     14.48%    100.00% # Distribution of cycle latency between the first time a load is issued and its completion (Unspecified)
system.o3Cpu7.lsq0.loadToUse::min_value             2                       # Distribution of cycle latency between the first time a load is issued and its completion (Unspecified)
system.o3Cpu7.lsq0.loadToUse::max_value          6453                       # Distribution of cycle latency between the first time a load is issued and its completion (Unspecified)
system.o3Cpu7.lsq0.loadToUse::total          15538052                       # Distribution of cycle latency between the first time a load is issued and its completion (Unspecified)
system.o3Cpu7.mmu.dtb.rdAccesses             15593157                       # TLB accesses on read requests (Count)
system.o3Cpu7.mmu.dtb.wrAccesses              3482648                       # TLB accesses on write requests (Count)
system.o3Cpu7.mmu.dtb.rdMisses                   5581                       # TLB misses on read requests (Count)
system.o3Cpu7.mmu.dtb.wrMisses                   2657                       # TLB misses on write requests (Count)
system.o3Cpu7.mmu.dtb.walker.power_state.pwrStateResidencyTicks::UNDEFINED  84407019000                       # Cumulative time (in ticks) in various power states (Tick)
system.o3Cpu7.mmu.itb.rdAccesses                    0                       # TLB accesses on read requests (Count)
system.o3Cpu7.mmu.itb.wrAccesses              2349552                       # TLB accesses on write requests (Count)
system.o3Cpu7.mmu.itb.rdMisses                      0                       # TLB misses on read requests (Count)
system.o3Cpu7.mmu.itb.wrMisses                    176                       # TLB misses on write requests (Count)
system.o3Cpu7.mmu.itb.walker.power_state.pwrStateResidencyTicks::UNDEFINED  84407019000                       # Cumulative time (in ticks) in various power states (Tick)
system.o3Cpu7.power_state.pwrStateResidencyTicks::OFF  84407019000                       # Cumulative time (in ticks) in various power states (Tick)
system.o3Cpu7.rename.squashCycles                7125                       # Number of cycles rename is squashing (Cycle)
system.o3Cpu7.rename.idleCycles               1840175                       # Number of cycles rename is idle (Cycle)
system.o3Cpu7.rename.blockCycles             48249523                       # Number of cycles rename is blocking (Cycle)
system.o3Cpu7.rename.serializeStallCycles       405552                       # count of cycles rename stalled for serializing inst (Cycle)
system.o3Cpu7.rename.runCycles                5735353                       # Number of cycles rename is running (Cycle)
system.o3Cpu7.rename.unblockCycles          360578045                       # Number of cycles rename is unblocking (Cycle)
system.o3Cpu7.rename.renamedInsts            46978333                       # Number of instructions processed by rename (Count)
system.o3Cpu7.rename.ROBFullEvents              31395                       # Number of times rename has blocked due to ROB full (Count)
system.o3Cpu7.rename.IQFullEvents              216845                       # Number of times rename has blocked due to IQ full (Count)
system.o3Cpu7.rename.LQFullEvents           301595235                       # Number of times rename has blocked due to LQ full (Count)
system.o3Cpu7.rename.SQFullEvents            58454457                       # Number of times rename has blocked due to SQ full (Count)
system.o3Cpu7.rename.renamedOperands         60092186                       # Number of destination operands rename has renamed (Count)
system.o3Cpu7.rename.lookups                150524234                       # Number of register rename lookups that rename has made (Count)
system.o3Cpu7.rename.intLookups              47303538                       # Number of integer rename lookups (Count)
system.o3Cpu7.rename.fpLookups               56991737                       # Number of floating rename lookups (Count)
system.o3Cpu7.rename.committedMaps           59818064                       # Number of HB maps that are committed (Count)
system.o3Cpu7.rename.undoneMaps                273928                       # Number of HB maps that are undone due to squashing (Count)
system.o3Cpu7.rename.serializing                 3623                       # count of serializing insts renamed (Count)
system.o3Cpu7.rename.tempSerializing             3789                       # count of temporary serializing insts renamed (Count)
system.o3Cpu7.rename.skidInsts                7720395                       # count of insts added to the skid buffer (Count)
system.o3Cpu7.rob.reads                     459384970                       # The number of ROB reads (Count)
system.o3Cpu7.rob.writes                     93898290                       # The number of ROB writes (Count)
system.o3Cpu7.thread_0.numInsts              23152666                       # Number of Instructions committed (Count)
system.o3Cpu7.thread_0.numOps                46769597                       # Number of Ops committed (Count)
system.o3Cpu7.thread_0.numMemRefs                   0                       # Number of Memory References (Count)
system.pc.bad_addr.power_state.pwrStateResidencyTicks::UNDEFINED  84407019000                       # Cumulative time (in ticks) in various power states (Tick)
system.pc.com_1.power_state.pwrStateResidencyTicks::UNDEFINED  84407019000                       # Cumulative time (in ticks) in various power states (Tick)
system.pc.default_bus.power_state.pwrStateResidencyTicks::UNDEFINED  84407019000                       # Cumulative time (in ticks) in various power states (Tick)
system.pc.empty_isa.power_state.pwrStateResidencyTicks::UNDEFINED  84407019000                       # Cumulative time (in ticks) in various power states (Tick)
system.pc.fake_com_2.power_state.pwrStateResidencyTicks::UNDEFINED  84407019000                       # Cumulative time (in ticks) in various power states (Tick)
system.pc.fake_com_3.power_state.pwrStateResidencyTicks::UNDEFINED  84407019000                       # Cumulative time (in ticks) in various power states (Tick)
system.pc.fake_com_4.power_state.pwrStateResidencyTicks::UNDEFINED  84407019000                       # Cumulative time (in ticks) in various power states (Tick)
system.pc.fake_floppy.power_state.pwrStateResidencyTicks::UNDEFINED  84407019000                       # Cumulative time (in ticks) in various power states (Tick)
system.pc.pci_host.power_state.pwrStateResidencyTicks::UNDEFINED  84407019000                       # Cumulative time (in ticks) in various power states (Tick)
system.pc.south_bridge.cmos.power_state.pwrStateResidencyTicks::UNDEFINED  84407019000                       # Cumulative time (in ticks) in various power states (Tick)
system.pc.south_bridge.dma1.power_state.pwrStateResidencyTicks::UNDEFINED  84407019000                       # Cumulative time (in ticks) in various power states (Tick)
system.pc.south_bridge.ide.disks0.IdeDisk.dmaReadFullPages            0                       # Number of full page size DMA reads (not PRD). (Count)
system.pc.south_bridge.ide.disks0.IdeDisk.dmaReadBytes            0                       # Number of bytes transfered via DMA reads (not PRD). (Byte)
system.pc.south_bridge.ide.disks0.IdeDisk.dmaReadTxs            0                       # Number of DMA read transactions (not PRD). (Count)
system.pc.south_bridge.ide.disks0.IdeDisk.dmaWriteFullPages            0                       # Number of full page size DMA writes. (Count)
system.pc.south_bridge.ide.disks0.IdeDisk.dmaWriteBytes            0                       # Number of bytes transfered via DMA writes. (Byte)
system.pc.south_bridge.ide.disks0.IdeDisk.dmaWriteTxs            0                       # Number of DMA write transactions. (Count)
system.pc.south_bridge.ide.disks1.IdeDisk.dmaReadFullPages            0                       # Number of full page size DMA reads (not PRD). (Count)
system.pc.south_bridge.ide.disks1.IdeDisk.dmaReadBytes            0                       # Number of bytes transfered via DMA reads (not PRD). (Byte)
system.pc.south_bridge.ide.disks1.IdeDisk.dmaReadTxs            0                       # Number of DMA read transactions (not PRD). (Count)
system.pc.south_bridge.ide.disks1.IdeDisk.dmaWriteFullPages            0                       # Number of full page size DMA writes. (Count)
system.pc.south_bridge.ide.disks1.IdeDisk.dmaWriteBytes            0                       # Number of bytes transfered via DMA writes. (Byte)
system.pc.south_bridge.ide.disks1.IdeDisk.dmaWriteTxs            0                       # Number of DMA write transactions. (Count)
system.pc.south_bridge.ide.power_state.pwrStateResidencyTicks::UNDEFINED  84407019000                       # Cumulative time (in ticks) in various power states (Tick)
system.pc.south_bridge.io_apic.power_state.pwrStateResidencyTicks::UNDEFINED  84407019000                       # Cumulative time (in ticks) in various power states (Tick)
system.pc.south_bridge.keyboard.power_state.pwrStateResidencyTicks::UNDEFINED  84407019000                       # Cumulative time (in ticks) in various power states (Tick)
system.pc.south_bridge.pic1.power_state.pwrStateResidencyTicks::UNDEFINED  84407019000                       # Cumulative time (in ticks) in various power states (Tick)
system.pc.south_bridge.pic2.power_state.pwrStateResidencyTicks::UNDEFINED  84407019000                       # Cumulative time (in ticks) in various power states (Tick)
system.pc.south_bridge.pit.power_state.pwrStateResidencyTicks::UNDEFINED  84407019000                       # Cumulative time (in ticks) in various power states (Tick)
system.pc.south_bridge.speaker.power_state.pwrStateResidencyTicks::UNDEFINED  84407019000                       # Cumulative time (in ticks) in various power states (Tick)
system.workload.inst.arm                            0                       # number of arm instructions executed (Count)
system.workload.inst.quiesce                        0                       # number of quiesce instructions executed (Count)

---------- End Simulation Statistics   ----------
