
---------- Begin Simulation Statistics ----------
simSeconds                                   0.032515                       # Number of seconds simulated (Second)
simTicks                                  32514745800                       # Number of ticks simulated (Tick)
finalTick                                95835602707200                       # Number of ticks from beginning of simulation (restored from checkpoints and never reset) (Tick)
simFreq                                  1000000000000                       # The number of ticks per simulated second ((Tick/Second))
hostSeconds                                   9389.52                       # Real time elapsed on the host (Second)
hostTickRate                                  3462876                       # The number of ticks simulated per host second (ticks/s) ((Tick/Second))
hostMemory                                   19931456                       # Number of bytes of host memory used (Byte)
simInsts                                    388350269                       # Number of instructions simulated (Count)
simOps                                      679880900                       # Number of ops (including micro ops) simulated (Count)
hostInstRate                                    41360                       # Simulator instruction rate (inst/s) ((Count/Second))
hostOpRate                                      72408                       # Simulator op (including micro ops) rate (op/s) ((Count/Second))
system.caches.delayHistogram::bucket_size            8                       # delay histogram for all message (Unspecified)
system.caches.delayHistogram::max_bucket           79                       # delay histogram for all message (Unspecified)
system.caches.delayHistogram::samples        21518556                       # delay histogram for all message (Unspecified)
system.caches.delayHistogram::mean           0.021798                       # delay histogram for all message (Unspecified)
system.caches.delayHistogram::stdev          0.475389                       # delay histogram for all message (Unspecified)
system.caches.delayHistogram             |    21490380     99.87%     99.87% |       25521      0.12%     99.99% |        1502      0.01%     99.99% |         579      0.00%    100.00% |         239      0.00%    100.00% |         105      0.00%    100.00% |          79      0.00%    100.00% |         100      0.00%    100.00% |          51      0.00%    100.00% |           0      0.00%    100.00% # delay histogram for all message (Unspecified)
system.caches.delayHistogram::total          21518556                       # delay histogram for all message (Unspecified)
system.caches.m_outstandReqHistSeqr::bucket_size            2                       (Unspecified)
system.caches.m_outstandReqHistSeqr::max_bucket           19                       (Unspecified)
system.caches.m_outstandReqHistSeqr::samples    145780942                       (Unspecified)
system.caches.m_outstandReqHistSeqr::mean     1.047809                       (Unspecified)
system.caches.m_outstandReqHistSeqr::gmean     1.032781                       (Unspecified)
system.caches.m_outstandReqHistSeqr::stdev     0.236095                       (Unspecified)
system.caches.m_outstandReqHistSeqr      |   139148721     95.45%     95.45% |     6553924      4.50%     99.95% |       52477      0.04%     99.98% |       17524      0.01%     99.99% |        5673      0.00%    100.00% |        2287      0.00%    100.00% |         255      0.00%    100.00% |          37      0.00%    100.00% |          44      0.00%    100.00% |           0      0.00%    100.00% (Unspecified)
system.caches.m_outstandReqHistSeqr::total    145780942                       (Unspecified)
system.caches.m_latencyHistSeqr::bucket_size          512                       (Unspecified)
system.caches.m_latencyHistSeqr::max_bucket         5119                       (Unspecified)
system.caches.m_latencyHistSeqr::samples    145783915                       (Unspecified)
system.caches.m_latencyHistSeqr::mean        7.937363                       (Unspecified)
system.caches.m_latencyHistSeqr::gmean       1.128256                       (Unspecified)
system.caches.m_latencyHistSeqr::stdev      55.950990                       (Unspecified)
system.caches.m_latencyHistSeqr          |   145713603     99.95%     99.95% |       36702      0.03%     99.98% |         188      0.00%     99.98% |       13528      0.01%     99.99% |       19568      0.01%    100.00% |         326      0.00%    100.00% |           0      0.00%    100.00% |           0      0.00%    100.00% |           0      0.00%    100.00% |           0      0.00%    100.00% (Unspecified)
system.caches.m_latencyHistSeqr::total      145783915                       (Unspecified)
system.caches.m_hitLatencyHistSeqr::bucket_size          256                       (Unspecified)
system.caches.m_hitLatencyHistSeqr::max_bucket         2559                       (Unspecified)
system.caches.m_hitLatencyHistSeqr::samples    142684200                       (Unspecified)
system.caches.m_hitLatencyHistSeqr::mean     1.000231                       (Unspecified)
system.caches.m_hitLatencyHistSeqr::gmean     1.000024                       (Unspecified)
system.caches.m_hitLatencyHistSeqr::stdev     0.290326                       (Unspecified)
system.caches.m_hitLatencyHistSeqr       |   142684162    100.00%    100.00% |          31      0.00%    100.00% |           6      0.00%    100.00% |           0      0.00%    100.00% |           0      0.00%    100.00% |           0      0.00%    100.00% |           0      0.00%    100.00% |           0      0.00%    100.00% |           1      0.00%    100.00% |           0      0.00%    100.00% (Unspecified)
system.caches.m_hitLatencyHistSeqr::total    142684200                       (Unspecified)
system.caches.m_missLatencyHistSeqr::bucket_size          512                       (Unspecified)
system.caches.m_missLatencyHistSeqr::max_bucket         5119                       (Unspecified)
system.caches.m_missLatencyHistSeqr::samples      3099715                       (Unspecified)
system.caches.m_missLatencyHistSeqr::mean   327.263226                       (Unspecified)
system.caches.m_missLatencyHistSeqr::gmean   291.285953                       (Unspecified)
system.caches.m_missLatencyHistSeqr::stdev   207.471250                       (Unspecified)
system.caches.m_missLatencyHistSeqr      |     3029410     97.73%     97.73% |       36696      1.18%     98.92% |         188      0.01%     98.92% |       13528      0.44%     99.36% |       19567      0.63%     99.99% |         326      0.01%    100.00% |           0      0.00%    100.00% |           0      0.00%    100.00% |           0      0.00%    100.00% |           0      0.00%    100.00% (Unspecified)
system.caches.m_missLatencyHistSeqr::total      3099715                       (Unspecified)
system.caches.delayVCHist.vnet_0::bucket_size            8                       # delay histogram for vnet_0 (Unspecified)
system.caches.delayVCHist.vnet_0::max_bucket           79                       # delay histogram for vnet_0 (Unspecified)
system.caches.delayVCHist.vnet_0::samples      9191507                       # delay histogram for vnet_0 (Unspecified)
system.caches.delayVCHist.vnet_0::mean       0.025155                       # delay histogram for vnet_0 (Unspecified)
system.caches.delayVCHist.vnet_0::stdev      0.529415                       # delay histogram for vnet_0 (Unspecified)
system.caches.delayVCHist.vnet_0         |     9170681     99.77%     99.77% |       20228      0.22%     99.99% |         191      0.00%    100.00% |          69      0.00%    100.00% |          53      0.00%    100.00% |          61      0.00%    100.00% |          73      0.00%    100.00% |         100      0.00%    100.00% |          51      0.00%    100.00% |           0      0.00%    100.00% # delay histogram for vnet_0 (Unspecified)
system.caches.delayVCHist.vnet_0::total       9191507                       # delay histogram for vnet_0 (Unspecified)
system.caches.delayVCHist.vnet_1::bucket_size            8                       # delay histogram for vnet_1 (Unspecified)
system.caches.delayVCHist.vnet_1::max_bucket           79                       # delay histogram for vnet_1 (Unspecified)
system.caches.delayVCHist.vnet_1::samples     12278761                       # delay histogram for vnet_1 (Unspecified)
system.caches.delayVCHist.vnet_1::mean       0.019370                       # delay histogram for vnet_1 (Unspecified)
system.caches.delayVCHist.vnet_1::stdev      0.431541                       # delay histogram for vnet_1 (Unspecified)
system.caches.delayVCHist.vnet_1         |    12271411     99.94%     99.94% |        5293      0.04%     99.98% |        1311      0.01%     99.99% |         510      0.00%    100.00% |         186      0.00%    100.00% |          44      0.00%    100.00% |           6      0.00%    100.00% |           0      0.00%    100.00% |           0      0.00%    100.00% |           0      0.00%    100.00% # delay histogram for vnet_1 (Unspecified)
system.caches.delayVCHist.vnet_1::total      12278761                       # delay histogram for vnet_1 (Unspecified)
system.caches.delayVCHist.vnet_2::bucket_size            1                       # delay histogram for vnet_2 (Unspecified)
system.caches.delayVCHist.vnet_2::max_bucket            9                       # delay histogram for vnet_2 (Unspecified)
system.caches.delayVCHist.vnet_2::samples        48288                       # delay histogram for vnet_2 (Unspecified)
system.caches.delayVCHist.vnet_2::mean       0.000373                       # delay histogram for vnet_2 (Unspecified)
system.caches.delayVCHist.vnet_2::stdev      0.027302                       # delay histogram for vnet_2 (Unspecified)
system.caches.delayVCHist.vnet_2         |       48279     99.98%     99.98% |           0      0.00%     99.98% |           9      0.02%    100.00% |           0      0.00%    100.00% |           0      0.00%    100.00% |           0      0.00%    100.00% |           0      0.00%    100.00% |           0      0.00%    100.00% |           0      0.00%    100.00% |           0      0.00%    100.00% # delay histogram for vnet_2 (Unspecified)
system.caches.delayVCHist.vnet_2::total         48288                       # delay histogram for vnet_2 (Unspecified)
system.caches.L1Cache_Controller.Load    |     6082788     12.50%     12.50% |     6061722     12.45%     24.95% |     6097597     12.53%     37.47% |     6095264     12.52%     49.99% |     6077794     12.49%     62.48% |     6096491     12.52%     75.00% |     6077370     12.48%     87.49% |     6090890     12.51%    100.00% (Unspecified)
system.caches.L1Cache_Controller.Load::total     48679916                       (Unspecified)
system.caches.L1Cache_Controller.Ifetch  |       18529     15.49%     15.49% |       13719     11.47%     26.96% |       14259     11.92%     38.88% |       14986     12.53%     51.41% |       14792     12.37%     63.78% |       14679     12.27%     76.05% |       14358     12.00%     88.05% |       14293     11.95%    100.00% (Unspecified)
system.caches.L1Cache_Controller.Ifetch::total       119615                       (Unspecified)
system.caches.L1Cache_Controller.Store   |    12113073     12.49%     12.49% |    12076882     12.45%     24.94% |    12150076     12.53%     37.47% |    12142177     12.52%     49.99% |    12108486     12.48%     62.47% |    12147350     12.53%     75.00% |    12109847     12.49%     87.49% |    12136497     12.51%    100.00% (Unspecified)
system.caches.L1Cache_Controller.Store::total     96984388                       (Unspecified)
system.caches.L1Cache_Controller.Inv     |        4654      9.67%      9.67% |        6517     13.54%     23.21% |        5858     12.17%     35.38% |        5361     11.14%     46.52% |        6092     12.66%     59.17% |        6324     13.14%     72.31% |        7686     15.97%     88.28% |        5641     11.72%    100.00% (Unspecified)
system.caches.L1Cache_Controller.Inv::total        48133                       (Unspecified)
system.caches.L1Cache_Controller.L1_Replacement |      384323     12.53%     12.53% |      381945     12.45%     24.98% |      383847     12.51%     37.49% |      384003     12.52%     50.01% |      382768     12.48%     62.49% |      383934     12.52%     75.00% |      382979     12.48%     87.49% |      383798     12.51%    100.00% (Unspecified)
system.caches.L1Cache_Controller.L1_Replacement::total      3067597                       (Unspecified)
system.caches.L1Cache_Controller.Fwd_GETS |         144     92.90%     92.90% |           0      0.00%     92.90% |           6      3.87%     96.77% |           0      0.00%     96.77% |           0      0.00%     96.77% |           3      1.94%     98.71% |           1      0.65%     99.35% |           1      0.65%    100.00% (Unspecified)
system.caches.L1Cache_Controller.Fwd_GETS::total          155                       (Unspecified)
system.caches.L1Cache_Controller.Data    |          96    100.00%    100.00% |           0      0.00%    100.00% |           0      0.00%    100.00% |           0      0.00%    100.00% |           0      0.00%    100.00% |           0      0.00%    100.00% |           0      0.00%    100.00% |           0      0.00%    100.00% (Unspecified)
system.caches.L1Cache_Controller.Data::total           96                       (Unspecified)
system.caches.L1Cache_Controller.Data_Exclusive |      379957     12.49%     12.49% |      378736     12.45%     24.95% |      380934     12.52%     37.47% |      380859     12.52%     49.99% |      379772     12.49%     62.48% |      380846     12.52%     75.00% |      379736     12.49%     87.49% |      380581     12.51%    100.00% (Unspecified)
system.caches.L1Cache_Controller.Data_Exclusive::total      3041421                       (Unspecified)
system.caches.L1Cache_Controller.DataS_fromL1 |           2      1.29%      1.29% |           9      5.81%      7.10% |           1      0.65%      7.74% |           6      3.87%     11.61% |           4      2.58%     14.19% |         129     83.23%     97.42% |           2      1.29%     98.71% |           2      1.29%    100.00% (Unspecified)
system.caches.L1Cache_Controller.DataS_fromL1::total          155                       (Unspecified)
system.caches.L1Cache_Controller.Data_all_Acks |        8492     14.64%     14.64% |        7171     12.36%     27.00% |        7050     12.15%     39.16% |        7060     12.17%     51.33% |        6932     11.95%     63.28% |        6947     11.98%     75.26% |        7200     12.41%     87.67% |        7150     12.33%    100.00% (Unspecified)
system.caches.L1Cache_Controller.Data_all_Acks::total        58002                       (Unspecified)
system.caches.L1Cache_Controller.Ack     |         852    100.00%    100.00% |           0      0.00%    100.00% |           0      0.00%    100.00% |           0      0.00%    100.00% |           0      0.00%    100.00% |           0      0.00%    100.00% |           0      0.00%    100.00% |           0      0.00%    100.00% (Unspecified)
system.caches.L1Cache_Controller.Ack::total          852                       (Unspecified)
system.caches.L1Cache_Controller.Ack_all |         137    100.00%    100.00% |           0      0.00%    100.00% |           0      0.00%    100.00% |           0      0.00%    100.00% |           0      0.00%    100.00% |           0      0.00%    100.00% |           0      0.00%    100.00% |           0      0.00%    100.00% (Unspecified)
system.caches.L1Cache_Controller.Ack_all::total          137                       (Unspecified)
system.caches.L1Cache_Controller.WB_Ack  |      380963     12.57%     12.57% |      376889     12.43%     25.00% |      379703     12.52%     37.52% |      380213     12.54%     50.06% |      378367     12.48%     62.54% |      379239     12.51%     75.05% |      376763     12.43%     87.48% |      379663     12.52%    100.00% (Unspecified)
system.caches.L1Cache_Controller.WB_Ack::total      3031800                       (Unspecified)
system.caches.L1Cache_Controller.NP.Load |      382111     12.49%     12.49% |      380910     12.46%     24.95% |      383014     12.52%     37.47% |      382951     12.52%     49.99% |      381719     12.48%     62.48% |      382878     12.52%     75.00% |      381941     12.49%     87.48% |      382755     12.52%    100.00% (Unspecified)
system.caches.L1Cache_Controller.NP.Load::total      3058279                       (Unspecified)
system.caches.L1Cache_Controller.NP.Ifetch |        1055     23.55%     23.55% |         506     11.30%     34.85% |         476     10.63%     45.48% |         493     11.01%     56.49% |         487     10.87%     67.36% |         479     10.69%     78.05% |         498     11.12%     89.17% |         485     10.83%    100.00% (Unspecified)
system.caches.L1Cache_Controller.NP.Ifetch::total         4479                       (Unspecified)
system.caches.L1Cache_Controller.NP.Store |        1315     19.52%     19.52% |         812     12.05%     31.57% |         579      8.59%     40.16% |         810     12.02%     52.18% |         805     11.95%     64.13% |         802     11.90%     76.03% |         808     11.99%     88.02% |         807     11.98%    100.00% (Unspecified)
system.caches.L1Cache_Controller.NP.Store::total         6738                       (Unspecified)
system.caches.L1Cache_Controller.NP.Inv  |          48      6.08%      6.08% |          37      4.69%     10.77% |         157     19.90%     30.67% |         167     21.17%     51.84% |         160     20.28%     72.12% |         156     19.77%     91.89% |          36      4.56%     96.45% |          28      3.55%    100.00% (Unspecified)
system.caches.L1Cache_Controller.NP.Inv::total          789                       (Unspecified)
system.caches.L1Cache_Controller.I.Load  |           1      0.24%      0.24% |          41      9.93%     10.17% |          87     21.07%     31.23% |          33      7.99%     39.23% |          69     16.71%     55.93% |         108     26.15%     82.08% |          41      9.93%     92.01% |          33      7.99%    100.00% (Unspecified)
system.caches.L1Cache_Controller.I.Load::total          413                       (Unspecified)
system.caches.L1Cache_Controller.I.Ifetch |        2692     14.84%     14.84% |        2193     12.09%     26.94% |        2235     12.32%     39.26% |        2202     12.14%     51.40% |        2206     12.16%     63.56% |        2204     12.15%     75.72% |        2201     12.14%     87.85% |        2203     12.15%    100.00% (Unspecified)
system.caches.L1Cache_Controller.I.Ifetch::total        18136                       (Unspecified)
system.caches.L1Cache_Controller.I.Store |        1374     11.81%     11.81% |        1454     12.50%     24.31% |        1595     13.71%     38.02% |        1437     12.35%     50.37% |        1422     12.22%     62.60% |        1452     12.48%     75.08% |        1449     12.46%     87.54% |        1450     12.46%    100.00% (Unspecified)
system.caches.L1Cache_Controller.I.Store::total        11633                       (Unspecified)
system.caches.L1Cache_Controller.I.L1_Replacement |         278      1.84%      1.84% |        2523     16.70%     18.54% |        1568     10.38%     28.92% |        1257      8.32%     37.24% |        1980     13.11%     50.35% |        2151     14.24%     64.59% |        3691     24.43%     89.02% |        1658     10.98%    100.00% (Unspecified)
system.caches.L1Cache_Controller.I.L1_Replacement::total        15106                       (Unspecified)
system.caches.L1Cache_Controller.S.Load  |        6943     10.53%     10.53% |        8218     12.46%     22.99% |        8272     12.54%     35.53% |        9125     13.84%     49.37% |        9119     13.83%     63.19% |        8309     12.60%     75.79% |        7907     11.99%     87.78% |        8059     12.22%    100.00% (Unspecified)
system.caches.L1Cache_Controller.S.Load::total        65952                       (Unspecified)
system.caches.L1Cache_Controller.S.Ifetch |       14782     15.24%     15.24% |       11020     11.36%     26.60% |       11548     11.91%     38.51% |       12291     12.67%     51.18% |       12099     12.47%     63.65% |       11996     12.37%     76.02% |       11659     12.02%     88.04% |       11605     11.96%    100.00% (Unspecified)
system.caches.L1Cache_Controller.S.Ifetch::total        97000                       (Unspecified)
system.caches.L1Cache_Controller.S.Store |          41    100.00%    100.00% |           0      0.00%    100.00% |           0      0.00%    100.00% |           0      0.00%    100.00% |           0      0.00%    100.00% |           0      0.00%    100.00% |           0      0.00%    100.00% |           0      0.00%    100.00% (Unspecified)
system.caches.L1Cache_Controller.S.Store::total           41                       (Unspecified)
system.caches.L1Cache_Controller.S.Inv   |        2787     14.44%     14.44% |        2423     12.56%     27.00% |        2301     11.93%     38.93% |        2308     11.96%     50.89% |        2311     11.98%     62.87% |        2302     11.93%     74.80% |        2433     12.61%     87.41% |        2429     12.59%    100.00% (Unspecified)
system.caches.L1Cache_Controller.S.Inv::total        19294                       (Unspecified)
system.caches.L1Cache_Controller.S.L1_Replacement |        3082     14.90%     14.90% |        2533     12.24%     27.14% |        2576     12.45%     39.59% |        2533     12.24%     51.83% |        2421     11.70%     63.53% |        2544     12.30%     75.83% |        2525     12.20%     88.03% |        2477     11.97%    100.00% (Unspecified)
system.caches.L1Cache_Controller.S.L1_Replacement::total        20691                       (Unspecified)
system.caches.L1Cache_Controller.E.Load  |     5677489     12.48%     12.48% |     5663475     12.45%     24.94% |     5697707     12.53%     37.47% |     5694183     12.52%     49.99% |     5678184     12.49%     62.47% |     5696493     12.53%     75.00% |     5679047     12.49%     87.49% |     5691450     12.51%    100.00% (Unspecified)
system.caches.L1Cache_Controller.E.Load::total     45478028                       (Unspecified)
system.caches.L1Cache_Controller.E.Store |         585     17.85%     17.85% |         379     11.56%     29.41% |         392     11.96%     41.37% |         399     12.17%     53.54% |         398     12.14%     65.68% |         339     10.34%     76.02% |         393     11.99%     88.01% |         393     11.99%    100.00% (Unspecified)
system.caches.L1Cache_Controller.E.Store::total         3278                       (Unspecified)
system.caches.L1Cache_Controller.E.Inv   |          88      0.56%      0.56% |        2581     16.36%     16.92% |        1770     11.22%     28.14% |        1419      8.99%     37.13% |        2162     13.70%     50.83% |        2322     14.72%     65.55% |        3736     23.68%     89.23% |        1699     10.77%    100.00% (Unspecified)
system.caches.L1Cache_Controller.E.Inv::total        15777                       (Unspecified)
system.caches.L1Cache_Controller.E.L1_Replacement |      371440     12.32%     12.32% |      375712     12.46%     24.79% |      378768     12.57%     37.35% |      379041     12.57%     49.92% |      377211     12.51%     62.44% |      378186     12.55%     74.98% |      375599     12.46%     87.44% |      378496     12.56%    100.00% (Unspecified)
system.caches.L1Cache_Controller.E.L1_Replacement::total      3014453                       (Unspecified)
system.caches.L1Cache_Controller.E.Fwd_GETS |           7     38.89%     38.89% |           0      0.00%     38.89% |           6     33.33%     72.22% |           0      0.00%     72.22% |           0      0.00%     72.22% |           3     16.67%     88.89% |           1      5.56%     94.44% |           1      5.56%    100.00% (Unspecified)
system.caches.L1Cache_Controller.E.Fwd_GETS::total           18                       (Unspecified)
system.caches.L1Cache_Controller.M.Load  |       16244     21.03%     21.03% |        9078     11.75%     32.78% |        8517     11.03%     43.81% |        8972     11.62%     55.42% |        8703     11.27%     66.69% |        8703     11.27%     77.96% |        8434     10.92%     88.88% |        8593     11.12%    100.00% (Unspecified)
system.caches.L1Cache_Controller.M.Load::total        77244                       (Unspecified)
system.caches.L1Cache_Controller.M.Store |    12109758     12.49%     12.49% |    12074237     12.45%     24.94% |    12147510     12.53%     37.47% |    12139531     12.52%     49.99% |    12105861     12.49%     62.47% |    12144757     12.53%     75.00% |    12107197     12.49%     87.49% |    12133847     12.51%    100.00% (Unspecified)
system.caches.L1Cache_Controller.M.Store::total     96962698                       (Unspecified)
system.caches.L1Cache_Controller.M.Inv   |        1731     14.12%     14.12% |        1476     12.04%     26.16% |        1628     13.28%     39.44% |        1465     11.95%     51.39% |        1457     11.89%     63.28% |        1542     12.58%     75.85% |        1479     12.06%     87.92% |        1481     12.08%    100.00% (Unspecified)
system.caches.L1Cache_Controller.M.Inv::total        12259                       (Unspecified)
system.caches.L1Cache_Controller.M.L1_Replacement |        9523     54.90%     54.90% |        1177      6.79%     61.68% |         935      5.39%     67.07% |        1172      6.76%     73.83% |        1156      6.66%     80.49% |        1053      6.07%     86.56% |        1164      6.71%     93.27% |        1167      6.73%    100.00% (Unspecified)
system.caches.L1Cache_Controller.M.L1_Replacement::total        17347                       (Unspecified)
system.caches.L1Cache_Controller.M.Fwd_GETS |         137    100.00%    100.00% |           0      0.00%    100.00% |           0      0.00%    100.00% |           0      0.00%    100.00% |           0      0.00%    100.00% |           0      0.00%    100.00% |           0      0.00%    100.00% |           0      0.00%    100.00% (Unspecified)
system.caches.L1Cache_Controller.M.Fwd_GETS::total          137                       (Unspecified)
system.caches.L1Cache_Controller.IS.Inv  |           0      0.00%      0.00% |           0      0.00%      0.00% |           2     16.67%     16.67% |           2     16.67%     33.33% |           2     16.67%     50.00% |           2     16.67%     66.67% |           2     16.67%     83.33% |           2     16.67%    100.00% (Unspecified)
system.caches.L1Cache_Controller.IS.Inv::total           12                       (Unspecified)
system.caches.L1Cache_Controller.IS.Data_Exclusive |      379957     12.49%     12.49% |      378736     12.45%     24.95% |      380934     12.52%     37.47% |      380859     12.52%     49.99% |      379772     12.49%     62.48% |      380846     12.52%     75.00% |      379736     12.49%     87.49% |      380581     12.51%    100.00% (Unspecified)
system.caches.L1Cache_Controller.IS.Data_Exclusive::total      3041421                       (Unspecified)
system.caches.L1Cache_Controller.IS.DataS_fromL1 |           2      1.29%      1.29% |           9      5.81%      7.10% |           1      0.65%      7.74% |           6      3.87%     11.61% |           4      2.58%     14.19% |         129     83.23%     97.42% |           2      1.29%     98.71% |           2      1.29%    100.00% (Unspecified)
system.caches.L1Cache_Controller.IS.DataS_fromL1::total          155                       (Unspecified)
system.caches.L1Cache_Controller.IS.Data_all_Acks |        5899     14.85%     14.85% |        4905     12.35%     27.20% |        4874     12.27%     39.48% |        4811     12.11%     51.59% |        4703     11.84%     63.43% |        4691     11.81%     75.24% |        4941     12.44%     87.68% |        4891     12.32%    100.00% (Unspecified)
system.caches.L1Cache_Controller.IS.Data_all_Acks::total        39715                       (Unspecified)
system.caches.L1Cache_Controller.IM.Data |          96    100.00%    100.00% |           0      0.00%    100.00% |           0      0.00%    100.00% |           0      0.00%    100.00% |           0      0.00%    100.00% |           0      0.00%    100.00% |           0      0.00%    100.00% |           0      0.00%    100.00% (Unspecified)
system.caches.L1Cache_Controller.IM.Data::total           96                       (Unspecified)
system.caches.L1Cache_Controller.IM.Data_all_Acks |        2593     14.19%     14.19% |        2266     12.40%     26.59% |        2174     11.90%     38.48% |        2247     12.30%     50.78% |        2227     12.19%     62.97% |        2254     12.33%     75.30% |        2257     12.35%     87.65% |        2257     12.35%    100.00% (Unspecified)
system.caches.L1Cache_Controller.IM.Data_all_Acks::total        18275                       (Unspecified)
system.caches.L1Cache_Controller.SM.Ack  |         852    100.00%    100.00% |           0      0.00%    100.00% |           0      0.00%    100.00% |           0      0.00%    100.00% |           0      0.00%    100.00% |           0      0.00%    100.00% |           0      0.00%    100.00% |           0      0.00%    100.00% (Unspecified)
system.caches.L1Cache_Controller.SM.Ack::total          852                       (Unspecified)
system.caches.L1Cache_Controller.SM.Ack_all |         137    100.00%    100.00% |           0      0.00%    100.00% |           0      0.00%    100.00% |           0      0.00%    100.00% |           0      0.00%    100.00% |           0      0.00%    100.00% |           0      0.00%    100.00% |           0      0.00%    100.00% (Unspecified)
system.caches.L1Cache_Controller.SM.Ack_all::total          137                       (Unspecified)
system.caches.L1Cache_Controller.IS_I.Data_all_Acks |           0      0.00%      0.00% |           0      0.00%      0.00% |           2     16.67%     16.67% |           2     16.67%     33.33% |           2     16.67%     50.00% |           2     16.67%     66.67% |           2     16.67%     83.33% |           2     16.67%    100.00% (Unspecified)
system.caches.L1Cache_Controller.IS_I.Data_all_Acks::total           12                       (Unspecified)
system.caches.L1Cache_Controller.M_I.Inv |           0      0.00%      0.00% |           0      0.00%      0.00% |           0      0.00%      0.00% |           0      0.00%      0.00% |           0      0.00%      0.00% |           0      0.00%      0.00% |           0      0.00%      0.00% |           2    100.00%    100.00% (Unspecified)
system.caches.L1Cache_Controller.M_I.Inv::total            2                       (Unspecified)
system.caches.L1Cache_Controller.M_I.WB_Ack |      380963     12.57%     12.57% |      376889     12.43%     25.00% |      379703     12.52%     37.52% |      380213     12.54%     50.06% |      378367     12.48%     62.54% |      379239     12.51%     75.05% |      376763     12.43%     87.48% |      379661     12.52%    100.00% (Unspecified)
system.caches.L1Cache_Controller.M_I.WB_Ack::total      3031798                       (Unspecified)
system.caches.L1Cache_Controller.SINK_WB_ACK.WB_Ack |           0      0.00%      0.00% |           0      0.00%      0.00% |           0      0.00%      0.00% |           0      0.00%      0.00% |           0      0.00%      0.00% |           0      0.00%      0.00% |           0      0.00%      0.00% |           2    100.00%    100.00% (Unspecified)
system.caches.L1Cache_Controller.SINK_WB_ACK.WB_Ack::total            2                       (Unspecified)
system.caches.Directory_Controller.Fetch |        2865      0.09%      0.09% |     3046616     99.91%    100.00% (Unspecified)
system.caches.Directory_Controller.Fetch::total      3049481                       (Unspecified)
system.caches.Directory_Controller.Data  |          14      0.02%      0.02% |       81443     99.98%    100.00% (Unspecified)
system.caches.Directory_Controller.Data::total        81457                       (Unspecified)
system.caches.Directory_Controller.Memory_Data |        2865      0.09%      0.09% |     3046612     99.91%    100.00% (Unspecified)
system.caches.Directory_Controller.Memory_Data::total      3049477                       (Unspecified)
system.caches.Directory_Controller.Memory_Ack |          14      0.02%      0.02% |       81443     99.98%    100.00% (Unspecified)
system.caches.Directory_Controller.Memory_Ack::total        81457                       (Unspecified)
system.caches.Directory_Controller.CleanReplacement |        2839      0.10%      0.10% |     2965185     99.90%    100.00% (Unspecified)
system.caches.Directory_Controller.CleanReplacement::total      2968024                       (Unspecified)
system.caches.Directory_Controller.I.Fetch |        2865      0.09%      0.09% |     3046616     99.91%    100.00% (Unspecified)
system.caches.Directory_Controller.I.Fetch::total      3049481                       (Unspecified)
system.caches.Directory_Controller.M.Data |          14      0.02%      0.02% |       81443     99.98%    100.00% (Unspecified)
system.caches.Directory_Controller.M.Data::total        81457                       (Unspecified)
system.caches.Directory_Controller.M.CleanReplacement |        2839      0.10%      0.10% |     2965185     99.90%    100.00% (Unspecified)
system.caches.Directory_Controller.M.CleanReplacement::total      2968024                       (Unspecified)
system.caches.Directory_Controller.IM.Memory_Data |        2865      0.09%      0.09% |     3046612     99.91%    100.00% (Unspecified)
system.caches.Directory_Controller.IM.Memory_Data::total      3049477                       (Unspecified)
system.caches.Directory_Controller.MI.Memory_Ack |          14      0.02%      0.02% |       81443     99.98%    100.00% (Unspecified)
system.caches.Directory_Controller.MI.Memory_Ack::total        81457                       (Unspecified)
system.caches.L2Cache_Controller.L1_GET_INSTR |        2705     11.96%     11.96% |        3420     15.12%     27.08% |        2375     10.50%     37.59% |        1975      8.73%     46.32% |        2667     11.79%     58.11% |        3225     14.26%     72.37% |        3034     13.42%     85.79% |        3214     14.21%    100.00% (Unspecified)
system.caches.L2Cache_Controller.L1_GET_INSTR::total        22615                       (Unspecified)
system.caches.L2Cache_Controller.L1_GETS |      384748     12.58%     12.58% |      382934     12.52%     25.10% |      382574     12.51%     37.61% |      381731     12.48%     50.09% |      381592     12.48%     62.56% |      381317     12.47%     75.03% |      381280     12.47%     87.49% |      382592     12.51%    100.00% (Unspecified)
system.caches.L2Cache_Controller.L1_GETS::total      3058768                       (Unspecified)
system.caches.L2Cache_Controller.L1_GETX |        2684     14.20%     14.20% |        2347     12.42%     26.62% |        1968     10.41%     37.03% |        2139     11.32%     48.35% |        1993     10.55%     58.90% |        2874     15.21%     74.10% |        2406     12.73%     86.84% |        2488     13.16%    100.00% (Unspecified)
system.caches.L2Cache_Controller.L1_GETX::total        18899                       (Unspecified)
system.caches.L2Cache_Controller.L1_UPGRADE |           2      4.65%      4.65% |          33     76.74%     81.40% |           0      0.00%     81.40% |           0      0.00%     81.40% |           0      0.00%     81.40% |           0      0.00%     81.40% |           8     18.60%    100.00% |           0      0.00%    100.00% (Unspecified)
system.caches.L2Cache_Controller.L1_UPGRADE::total           43                       (Unspecified)
system.caches.L2Cache_Controller.L1_PUTX |      379316     12.51%     12.51% |      379069     12.50%     25.01% |      378062     12.47%     37.48% |      378862     12.50%     49.98% |      378690     12.49%     62.47% |      379595     12.52%     74.99% |      379046     12.50%     87.49% |      379158     12.51%    100.00% (Unspecified)
system.caches.L2Cache_Controller.L1_PUTX::total      3031798                       (Unspecified)
system.caches.L2Cache_Controller.L1_PUTX_old |           2     50.00%     50.00% |           0      0.00%     50.00% |           0      0.00%     50.00% |           2     50.00%    100.00% |           0      0.00%    100.00% |           0      0.00%    100.00% |           0      0.00%    100.00% |           0      0.00%    100.00% (Unspecified)
system.caches.L2Cache_Controller.L1_PUTX_old::total            4                       (Unspecified)
system.caches.L2Cache_Controller.L2_Replacement |        8805     12.70%     12.70% |        8614     12.42%     25.12% |        8429     12.16%     37.28% |        8643     12.47%     49.75% |        8527     12.30%     62.05% |        8860     12.78%     74.83% |        8653     12.48%     87.31% |        8799     12.69%    100.00% (Unspecified)
system.caches.L2Cache_Controller.L2_Replacement::total        69330                       (Unspecified)
system.caches.L2Cache_Controller.L2_Replacement_clean |      372702     12.51%     12.51% |      372763     12.51%     25.01% |      372378     12.50%     37.51% |      372433     12.50%     50.01% |      372515     12.50%     62.51% |      372381     12.50%     75.00% |      372450     12.50%     87.50% |      372529     12.50%    100.00% (Unspecified)
system.caches.L2Cache_Controller.L2_Replacement_clean::total      2980151                       (Unspecified)
system.caches.L2Cache_Controller.Mem_Data |      381506     12.51%     12.51% |      381377     12.51%     25.02% |      380807     12.49%     37.50% |      381075     12.50%     50.00% |      381042     12.50%     62.50% |      381241     12.50%     75.00% |      381102     12.50%     87.50% |      381327     12.50%    100.00% (Unspecified)
system.caches.L2Cache_Controller.Mem_Data::total      3049477                       (Unspecified)
system.caches.L2Cache_Controller.Mem_Ack |      381507     12.51%     12.51% |      381377     12.51%     25.02% |      380807     12.49%     37.50% |      381076     12.50%     50.00% |      381042     12.50%     62.50% |      381241     12.50%     75.00% |      381103     12.50%     87.50% |      381328     12.50%    100.00% (Unspecified)
system.caches.L2Cache_Controller.Mem_Ack::total      3049481                       (Unspecified)
system.caches.L2Cache_Controller.WB_Data |        1652     13.33%     13.33% |        1633     13.17%     26.50% |        1548     12.49%     38.99% |        1510     12.18%     51.17% |        1434     11.57%     62.74% |        1458     11.76%     74.50% |        1541     12.43%     86.93% |        1620     13.07%    100.00% (Unspecified)
system.caches.L2Cache_Controller.WB_Data::total        12396                       (Unspecified)
system.caches.L2Cache_Controller.WB_Data_clean |           3     15.00%     15.00% |           5     25.00%     40.00% |           1      5.00%     45.00% |           4     20.00%     65.00% |           2     10.00%     75.00% |           1      5.00%     80.00% |           2     10.00%     90.00% |           2     10.00%    100.00% (Unspecified)
system.caches.L2Cache_Controller.WB_Data_clean::total           20                       (Unspecified)
system.caches.L2Cache_Controller.Ack     |        2348     14.42%     14.42% |        2230     13.70%     28.12% |        1868     11.47%     39.59% |        1690     10.38%     49.98% |        2184     13.42%     63.39% |        2082     12.79%     76.18% |        1871     11.49%     87.67% |        2007     12.33%    100.00% (Unspecified)
system.caches.L2Cache_Controller.Ack::total        16280                       (Unspecified)
system.caches.L2Cache_Controller.Ack_all |        2470     13.25%     13.25% |        2492     13.37%     26.61% |        2270     12.18%     38.79% |        2245     12.04%     50.83% |        2319     12.44%     63.27% |        2263     12.14%     75.41% |        2230     11.96%     87.37% |        2355     12.63%    100.00% (Unspecified)
system.caches.L2Cache_Controller.Ack_all::total        18644                       (Unspecified)
system.caches.L2Cache_Controller.Unblock |          68     43.87%     43.87% |          38     24.52%     68.39% |           1      0.65%     69.03% |           3      1.94%     70.97% |           2      1.29%     72.26% |           1      0.65%     72.90% |          40     25.81%     98.71% |           2      1.29%    100.00% (Unspecified)
system.caches.L2Cache_Controller.Unblock::total          155                       (Unspecified)
system.caches.L2Cache_Controller.Exclusive_Unblock |      382993     12.52%     12.52% |      382774     12.51%     25.03% |      381529     12.47%     37.50% |      382299     12.49%     49.99% |      382052     12.49%     62.48% |      382947     12.52%     74.99% |      382500     12.50%     87.49% |      382739     12.51%    100.00% (Unspecified)
system.caches.L2Cache_Controller.Exclusive_Unblock::total      3059833                       (Unspecified)
system.caches.L2Cache_Controller.NP.L1_GET_INSTR |         407     14.33%     14.33% |         397     13.98%     28.31% |         329     11.58%     39.89% |         304     10.70%     50.60% |         373     13.13%     63.73% |         351     12.36%     76.09% |         301     10.60%     86.69% |         378     13.31%    100.00% (Unspecified)
system.caches.L2Cache_Controller.NP.L1_GET_INSTR::total         2840                       (Unspecified)
system.caches.L2Cache_Controller.NP.L1_GETS |      379268     12.50%     12.50% |      379183     12.50%     25.01% |      378967     12.49%     37.50% |      379140     12.50%     50.00% |      379117     12.50%     62.50% |      379166     12.50%     75.00% |      379117     12.50%     87.50% |      379202     12.50%    100.00% (Unspecified)
system.caches.L2Cache_Controller.NP.L1_GETS::total      3033160                       (Unspecified)
system.caches.L2Cache_Controller.NP.L1_GETX |        1832     13.59%     13.59% |        1797     13.33%     26.92% |        1511     11.21%     38.13% |        1632     12.11%     50.23% |        1552     11.51%     61.75% |        1724     12.79%     74.53% |        1685     12.50%     87.03% |        1748     12.97%    100.00% (Unspecified)
system.caches.L2Cache_Controller.NP.L1_GETX::total        13481                       (Unspecified)
system.caches.L2Cache_Controller.NP.L1_PUTX_old |           1     50.00%     50.00% |           0      0.00%     50.00% |           0      0.00%     50.00% |           1     50.00%    100.00% |           0      0.00%    100.00% |           0      0.00%    100.00% |           0      0.00%    100.00% |           0      0.00%    100.00% (Unspecified)
system.caches.L2Cache_Controller.NP.L1_PUTX_old::total            2                       (Unspecified)
system.caches.L2Cache_Controller.SS.L1_GET_INSTR |        2276     11.60%     11.60% |        3008     15.34%     26.94% |        2031     10.35%     37.29% |        1648      8.40%     45.69% |        2276     11.60%     57.30% |        2858     14.57%     71.87% |        2714     13.84%     85.70% |        2804     14.30%    100.00% (Unspecified)
system.caches.L2Cache_Controller.SS.L1_GET_INSTR::total        19615                       (Unspecified)
system.caches.L2Cache_Controller.SS.L1_GETS |        4279     25.12%     25.12% |        2434     14.29%     39.41% |        2938     17.25%     56.66% |        1476      8.67%     65.33% |        1462      8.58%     73.91% |        1171      6.87%     80.78% |        1016      5.96%     86.75% |        2257     13.25%    100.00% (Unspecified)
system.caches.L2Cache_Controller.SS.L1_GETS::total        17033                       (Unspecified)
system.caches.L2Cache_Controller.SS.L1_GETX |          64     66.67%     66.67% |           0      0.00%     66.67% |           0      0.00%     66.67% |           0      0.00%     66.67% |           0      0.00%     66.67% |           0      0.00%     66.67% |          32     33.33%    100.00% |           0      0.00%    100.00% (Unspecified)
system.caches.L2Cache_Controller.SS.L1_GETX::total           96                       (Unspecified)
system.caches.L2Cache_Controller.SS.L1_UPGRADE |           2      4.88%      4.88% |          33     80.49%     85.37% |           0      0.00%     85.37% |           0      0.00%     85.37% |           0      0.00%     85.37% |           0      0.00%     85.37% |           6     14.63%    100.00% |           0      0.00%    100.00% (Unspecified)
system.caches.L2Cache_Controller.SS.L1_UPGRADE::total           41                       (Unspecified)
system.caches.L2Cache_Controller.SS.L2_Replacement_clean |         416     14.51%     14.51% |         405     14.13%     28.64% |         332     11.58%     40.22% |         306     10.67%     50.89% |         374     13.04%     63.93% |         350     12.21%     76.14% |         302     10.53%     86.68% |         382     13.32%    100.00% (Unspecified)
system.caches.L2Cache_Controller.SS.L2_Replacement_clean::total         2867                       (Unspecified)
system.caches.L2Cache_Controller.M.L1_GET_INSTR |           0      0.00%      0.00% |           2     25.00%     25.00% |           1     12.50%     37.50% |           0      0.00%     37.50% |           0      0.00%     37.50% |           1     12.50%     50.00% |           2     25.00%     75.00% |           2     25.00%    100.00% (Unspecified)
system.caches.L2Cache_Controller.M.L1_GET_INSTR::total            8                       (Unspecified)
system.caches.L2Cache_Controller.M.L1_GETS |        1109     13.39%     13.39% |        1269     15.32%     28.71% |         664      8.02%     36.72% |        1101     13.29%     50.01% |        1009     12.18%     62.19% |         976     11.78%     73.97% |        1042     12.58%     86.55% |        1114     13.45%    100.00% (Unspecified)
system.caches.L2Cache_Controller.M.L1_GETS::total         8284                       (Unspecified)
system.caches.L2Cache_Controller.M.L1_GETX |         723     15.08%     15.08% |         495     10.33%     25.41% |         389      8.11%     33.52% |         430      8.97%     42.49% |         376      7.84%     50.33% |        1082     22.57%     72.90% |         619     12.91%     85.82% |         680     14.18%    100.00% (Unspecified)
system.caches.L2Cache_Controller.M.L1_GETX::total         4794                       (Unspecified)
system.caches.L2Cache_Controller.M.L2_Replacement |        8792     12.71%     12.71% |        8603     12.43%     25.14% |        8410     12.15%     37.29% |        8623     12.46%     49.75% |        8518     12.31%     62.06% |        8843     12.78%     74.84% |        8634     12.48%     87.32% |        8775     12.68%    100.00% (Unspecified)
system.caches.L2Cache_Controller.M.L2_Replacement::total        69198                       (Unspecified)
system.caches.L2Cache_Controller.M.L2_Replacement_clean |      368658     12.50%     12.50% |      368682     12.50%     25.00% |      368579     12.50%     37.50% |      368697     12.50%     50.00% |      368771     12.50%     62.50% |      368677     12.50%     75.00% |      368736     12.50%     87.50% |      368578     12.50%    100.00% (Unspecified)
system.caches.L2Cache_Controller.M.L2_Replacement_clean::total      2949378                       (Unspecified)
system.caches.L2Cache_Controller.MT.L1_GETS |          68     43.87%     43.87% |          38     24.52%     68.39% |           1      0.65%     69.03% |           3      1.94%     70.97% |           2      1.29%     72.26% |           1      0.65%     72.90% |          40     25.81%     98.71% |           2      1.29%    100.00% (Unspecified)
system.caches.L2Cache_Controller.MT.L1_GETS::total          155                       (Unspecified)
system.caches.L2Cache_Controller.MT.L1_PUTX |      379316     12.51%     12.51% |      379069     12.50%     25.01% |      378062     12.47%     37.48% |      378862     12.50%     49.98% |      378690     12.49%     62.47% |      379595     12.52%     74.99% |      379046     12.50%     87.49% |      379158     12.51%    100.00% (Unspecified)
system.caches.L2Cache_Controller.MT.L1_PUTX::total      3031798                       (Unspecified)
system.caches.L2Cache_Controller.MT.L2_Replacement |          13      9.85%      9.85% |          11      8.33%     18.18% |          19     14.39%     32.58% |          20     15.15%     47.73% |           9      6.82%     54.55% |          17     12.88%     67.42% |          19     14.39%     81.82% |          24     18.18%    100.00% (Unspecified)
system.caches.L2Cache_Controller.MT.L2_Replacement::total          132                       (Unspecified)
system.caches.L2Cache_Controller.MT.L2_Replacement_clean |        3628     13.00%     13.00% |        3676     13.17%     26.17% |        3467     12.42%     38.60% |        3430     12.29%     50.89% |        3370     12.08%     62.96% |        3354     12.02%     74.98% |        3412     12.23%     87.21% |        3569     12.79%    100.00% (Unspecified)
system.caches.L2Cache_Controller.MT.L2_Replacement_clean::total        27906                       (Unspecified)
system.caches.L2Cache_Controller.M_I.L1_GETX |          65     12.31%     12.31% |          55     10.42%     22.73% |          68     12.88%     35.61% |          77     14.58%     50.19% |          65     12.31%     62.50% |          68     12.88%     75.38% |          70     13.26%     88.64% |          60     11.36%    100.00% (Unspecified)
system.caches.L2Cache_Controller.M_I.L1_GETX::total          528                       (Unspecified)
system.caches.L2Cache_Controller.M_I.Mem_Ack |      381507     12.51%     12.51% |      381377     12.51%     25.02% |      380807     12.49%     37.50% |      381076     12.50%     50.00% |      381042     12.50%     62.50% |      381241     12.50%     75.00% |      381103     12.50%     87.50% |      381328     12.50%    100.00% (Unspecified)
system.caches.L2Cache_Controller.M_I.Mem_Ack::total      3049481                       (Unspecified)
system.caches.L2Cache_Controller.MT_I.WB_Data |          13      9.85%      9.85% |          11      8.33%     18.18% |          19     14.39%     32.58% |          20     15.15%     47.73% |           9      6.82%     54.55% |          17     12.88%     67.42% |          19     14.39%     81.82% |          24     18.18%    100.00% (Unspecified)
system.caches.L2Cache_Controller.MT_I.WB_Data::total          132                       (Unspecified)
system.caches.L2Cache_Controller.MCT_I.L1_PUTX_old |           1     50.00%     50.00% |           0      0.00%     50.00% |           0      0.00%     50.00% |           1     50.00%    100.00% |           0      0.00%    100.00% |           0      0.00%    100.00% |           0      0.00%    100.00% |           0      0.00%    100.00% (Unspecified)
system.caches.L2Cache_Controller.MCT_I.L1_PUTX_old::total            2                       (Unspecified)
system.caches.L2Cache_Controller.MCT_I.WB_Data |        1573     12.97%     12.97% |        1589     13.10%     26.07% |        1529     12.61%     38.68% |        1490     12.29%     50.97% |        1425     11.75%     62.72% |        1441     11.88%     74.60% |        1484     12.24%     86.84% |        1596     13.16%    100.00% (Unspecified)
system.caches.L2Cache_Controller.MCT_I.WB_Data::total        12127                       (Unspecified)
system.caches.L2Cache_Controller.MCT_I.WB_Data_clean |           1     50.00%     50.00% |           0      0.00%     50.00% |           0      0.00%     50.00% |           1     50.00%    100.00% |           0      0.00%    100.00% |           0      0.00%    100.00% |           0      0.00%    100.00% |           0      0.00%    100.00% (Unspecified)
system.caches.L2Cache_Controller.MCT_I.WB_Data_clean::total            2                       (Unspecified)
system.caches.L2Cache_Controller.MCT_I.Ack_all |        2054     13.02%     13.02% |        2087     13.23%     26.25% |        1938     12.28%     38.53% |        1939     12.29%     50.82% |        1945     12.33%     63.15% |        1913     12.13%     75.27% |        1928     12.22%     87.49% |        1973     12.51%    100.00% (Unspecified)
system.caches.L2Cache_Controller.MCT_I.Ack_all::total        15777                       (Unspecified)
system.caches.L2Cache_Controller.I_I.Ack |        2348     14.42%     14.42% |        2230     13.70%     28.12% |        1868     11.47%     39.59% |        1690     10.38%     49.98% |        2184     13.42%     63.39% |        2082     12.79%     76.18% |        1871     11.49%     87.67% |        2007     12.33%    100.00% (Unspecified)
system.caches.L2Cache_Controller.I_I.Ack::total        16280                       (Unspecified)
system.caches.L2Cache_Controller.I_I.Ack_all |         416     14.51%     14.51% |         405     14.13%     28.64% |         332     11.58%     40.22% |         306     10.67%     50.89% |         374     13.04%     63.93% |         350     12.21%     76.14% |         302     10.53%     86.68% |         382     13.32%    100.00% (Unspecified)
system.caches.L2Cache_Controller.I_I.Ack_all::total         2867                       (Unspecified)
system.caches.L2Cache_Controller.ISS.L1_GETS |           4     21.05%     21.05% |           3     15.79%     36.84% |           2     10.53%     47.37% |           3     15.79%     63.16% |           2     10.53%     73.68% |           1      5.26%     78.95% |           0      0.00%     78.95% |           4     21.05%    100.00% (Unspecified)
system.caches.L2Cache_Controller.ISS.L1_GETS::total           19                       (Unspecified)
system.caches.L2Cache_Controller.ISS.Mem_Data |      379263     12.50%     12.50% |      379180     12.50%     25.01% |      378965     12.49%     37.50% |      379136     12.50%     50.00% |      379115     12.50%     62.50% |      379165     12.50%     75.00% |      379116     12.50%     87.50% |      379197     12.50%    100.00% (Unspecified)
system.caches.L2Cache_Controller.ISS.Mem_Data::total      3033137                       (Unspecified)
system.caches.L2Cache_Controller.IS.L1_GET_INSTR |          22     14.47%     14.47% |          13      8.55%     23.03% |          14      9.21%     32.24% |          23     15.13%     47.37% |          18     11.84%     59.21% |          15      9.87%     69.08% |          17     11.18%     80.26% |          30     19.74%    100.00% (Unspecified)
system.caches.L2Cache_Controller.IS.L1_GET_INSTR::total          152                       (Unspecified)
system.caches.L2Cache_Controller.IS.L1_GETS |          20     48.78%     48.78% |           7     17.07%     65.85% |           2      4.88%     70.73% |           2      4.88%     75.61% |           0      0.00%     75.61% |           0      0.00%     75.61% |           0      0.00%     75.61% |          10     24.39%    100.00% (Unspecified)
system.caches.L2Cache_Controller.IS.L1_GETS::total           41                       (Unspecified)
system.caches.L2Cache_Controller.IS.Mem_Data |         411     14.38%     14.38% |         400     13.99%     28.37% |         331     11.58%     39.94% |         307     10.74%     50.68% |         375     13.12%     63.80% |         352     12.31%     76.11% |         301     10.53%     86.64% |         382     13.36%    100.00% (Unspecified)
system.caches.L2Cache_Controller.IS.Mem_Data::total         2859                       (Unspecified)
system.caches.L2Cache_Controller.IM.Mem_Data |        1832     13.59%     13.59% |        1797     13.33%     26.92% |        1511     11.21%     38.13% |        1632     12.11%     50.23% |        1552     11.51%     61.75% |        1724     12.79%     74.53% |        1685     12.50%     87.03% |        1748     12.97%    100.00% (Unspecified)
system.caches.L2Cache_Controller.IM.Mem_Data::total        13481                       (Unspecified)
system.caches.L2Cache_Controller.SS_MB.L1_GETS |           0      0.00%      0.00% |           0      0.00%      0.00% |           0      0.00%      0.00% |           0      0.00%      0.00% |           0      0.00%      0.00% |           0      0.00%      0.00% |          35    100.00%    100.00% |           0      0.00%    100.00% (Unspecified)
system.caches.L2Cache_Controller.SS_MB.L1_GETS::total           35                       (Unspecified)
system.caches.L2Cache_Controller.SS_MB.Exclusive_Unblock |          66     48.18%     48.18% |          33     24.09%     72.26% |           0      0.00%     72.26% |           0      0.00%     72.26% |           0      0.00%     72.26% |           0      0.00%     72.26% |          38     27.74%    100.00% |           0      0.00%    100.00% (Unspecified)
system.caches.L2Cache_Controller.SS_MB.Exclusive_Unblock::total          137                       (Unspecified)
system.caches.L2Cache_Controller.MT_MB.Exclusive_Unblock |      382927     12.52%     12.52% |      382741     12.51%     25.02% |      381529     12.47%     37.49% |      382299     12.49%     49.99% |      382052     12.49%     62.48% |      382947     12.52%     74.99% |      382462     12.50%     87.49% |      382739     12.51%    100.00% (Unspecified)
system.caches.L2Cache_Controller.MT_MB.Exclusive_Unblock::total      3059696                       (Unspecified)
system.caches.L2Cache_Controller.MT_IIB.L1_GETS |           0      0.00%      0.00% |           0      0.00%      0.00% |           0      0.00%      0.00% |           6     15.38%     15.38% |           0      0.00%     15.38% |           1      2.56%     17.95% |          30     76.92%     94.87% |           2      5.13%    100.00% (Unspecified)
system.caches.L2Cache_Controller.MT_IIB.L1_GETS::total           39                       (Unspecified)
system.caches.L2Cache_Controller.MT_IIB.WB_Data |          66     48.18%     48.18% |          33     24.09%     72.26% |           0      0.00%     72.26% |           0      0.00%     72.26% |           0      0.00%     72.26% |           0      0.00%     72.26% |          38     27.74%    100.00% |           0      0.00%    100.00% (Unspecified)
system.caches.L2Cache_Controller.MT_IIB.WB_Data::total          137                       (Unspecified)
system.caches.L2Cache_Controller.MT_IIB.WB_Data_clean |           2     11.11%     11.11% |           5     27.78%     38.89% |           1      5.56%     44.44% |           3     16.67%     61.11% |           2     11.11%     72.22% |           1      5.56%     77.78% |           2     11.11%     88.89% |           2     11.11%    100.00% (Unspecified)
system.caches.L2Cache_Controller.MT_IIB.WB_Data_clean::total           18                       (Unspecified)
system.caches.L2Cache_Controller.MT_SB.L1_GETS |           0      0.00%      0.00% |           0      0.00%      0.00% |           0      0.00%      0.00% |           0      0.00%      0.00% |           0      0.00%      0.00% |           1     50.00%     50.00% |           0      0.00%     50.00% |           1     50.00%    100.00% (Unspecified)
system.caches.L2Cache_Controller.MT_SB.L1_GETS::total            2                       (Unspecified)
system.caches.L2Cache_Controller.MT_SB.L1_UPGRADE |           0      0.00%      0.00% |           0      0.00%      0.00% |           0      0.00%      0.00% |           0      0.00%      0.00% |           0      0.00%      0.00% |           0      0.00%      0.00% |           2    100.00%    100.00% |           0      0.00%    100.00% (Unspecified)
system.caches.L2Cache_Controller.MT_SB.L1_UPGRADE::total            2                       (Unspecified)
system.caches.L2Cache_Controller.MT_SB.Unblock |          68     43.87%     43.87% |          38     24.52%     68.39% |           1      0.65%     69.03% |           3      1.94%     70.97% |           2      1.29%     72.26% |           1      0.65%     72.90% |          40     25.81%     98.71% |           2      1.29%    100.00% (Unspecified)
system.caches.L2Cache_Controller.MT_SB.Unblock::total          155                       (Unspecified)
system.caches.RequestType.LD.latency_hist_seqr::bucket_size          512                       (Unspecified)
system.caches.RequestType.LD.latency_hist_seqr::max_bucket         5119                       (Unspecified)
system.caches.RequestType.LD.latency_hist_seqr::samples     48679912                       (Unspecified)
system.caches.RequestType.LD.latency_hist_seqr::mean    21.719524                       (Unspecified)
system.caches.RequestType.LD.latency_hist_seqr::gmean     1.431037                       (Unspecified)
system.caches.RequestType.LD.latency_hist_seqr::stdev    95.269196                       (Unspecified)
system.caches.RequestType.LD.latency_hist_seqr |    48609805     99.86%     99.86% |       36535      0.08%     99.93% |         175      0.00%     99.93% |       13516      0.03%     99.96% |       19556      0.04%    100.00% |         325      0.00%    100.00% |           0      0.00%    100.00% |           0      0.00%    100.00% |           0      0.00%    100.00% |           0      0.00%    100.00% (Unspecified)
system.caches.RequestType.LD.latency_hist_seqr::total     48679912                       (Unspecified)
system.caches.RequestType.LD.hit_latency_hist_seqr::bucket_size            1                       (Unspecified)
system.caches.RequestType.LD.hit_latency_hist_seqr::max_bucket            9                       (Unspecified)
system.caches.RequestType.LD.hit_latency_hist_seqr::samples     45621224                       (Unspecified)
system.caches.RequestType.LD.hit_latency_hist_seqr::mean     1.000004                       (Unspecified)
system.caches.RequestType.LD.hit_latency_hist_seqr::gmean     1.000003                       (Unspecified)
system.caches.RequestType.LD.hit_latency_hist_seqr::stdev     0.002104                       (Unspecified)
system.caches.RequestType.LD.hit_latency_hist_seqr |           0      0.00%      0.00% |    45621022    100.00%    100.00% |         202      0.00%    100.00% |           0      0.00%    100.00% |           0      0.00%    100.00% |           0      0.00%    100.00% |           0      0.00%    100.00% |           0      0.00%    100.00% |           0      0.00%    100.00% |           0      0.00%    100.00% (Unspecified)
system.caches.RequestType.LD.hit_latency_hist_seqr::total     45621224                       (Unspecified)
system.caches.RequestType.LD.miss_latency_hist_seqr::bucket_size          512                       (Unspecified)
system.caches.RequestType.LD.miss_latency_hist_seqr::max_bucket         5119                       (Unspecified)
system.caches.RequestType.LD.miss_latency_hist_seqr::samples      3058688                       (Unspecified)
system.caches.RequestType.LD.miss_latency_hist_seqr::mean   330.757206                       (Unspecified)
system.caches.RequestType.LD.miss_latency_hist_seqr::gmean   300.059078                       (Unspecified)
system.caches.RequestType.LD.miss_latency_hist_seqr::stdev   206.260257                       (Unspecified)
system.caches.RequestType.LD.miss_latency_hist_seqr |     2988581     97.71%     97.71% |       36535      1.19%     98.90% |         175      0.01%     98.91% |       13516      0.44%     99.35% |       19556      0.64%     99.99% |         325      0.01%    100.00% |           0      0.00%    100.00% |           0      0.00%    100.00% |           0      0.00%    100.00% |           0      0.00%    100.00% (Unspecified)
system.caches.RequestType.LD.miss_latency_hist_seqr::total      3058688                       (Unspecified)
system.caches.RequestType.ST.latency_hist_seqr::bucket_size          256                       (Unspecified)
system.caches.RequestType.ST.latency_hist_seqr::max_bucket         2559                       (Unspecified)
system.caches.RequestType.ST.latency_hist_seqr::samples     48573841                       (Unspecified)
system.caches.RequestType.ST.latency_hist_seqr::mean     1.004273                       (Unspecified)
system.caches.RequestType.ST.latency_hist_seqr::gmean     1.000245                       (Unspecified)
system.caches.RequestType.ST.latency_hist_seqr::stdev     1.166531                       (Unspecified)
system.caches.RequestType.ST.latency_hist_seqr |    48573619    100.00%    100.00% |         181      0.00%    100.00% |          33      0.00%    100.00% |           4      0.00%    100.00% |           0      0.00%    100.00% |           0      0.00%    100.00% |           1      0.00%    100.00% |           1      0.00%    100.00% |           2      0.00%    100.00% |           0      0.00%    100.00% (Unspecified)
system.caches.RequestType.ST.latency_hist_seqr::total     48573841                       (Unspecified)
system.caches.RequestType.ST.hit_latency_hist_seqr::bucket_size          128                       (Unspecified)
system.caches.RequestType.ST.hit_latency_hist_seqr::max_bucket         1279                       (Unspecified)
system.caches.RequestType.ST.hit_latency_hist_seqr::samples     48570613                       (Unspecified)
system.caches.RequestType.ST.hit_latency_hist_seqr::mean     1.000245                       (Unspecified)
system.caches.RequestType.ST.hit_latency_hist_seqr::gmean     1.000028                       (Unspecified)
system.caches.RequestType.ST.hit_latency_hist_seqr::stdev     0.236155                       (Unspecified)
system.caches.RequestType.ST.hit_latency_hist_seqr |    48570589    100.00%    100.00% |          15      0.00%    100.00% |           4      0.00%    100.00% |           2      0.00%    100.00% |           2      0.00%    100.00% |           1      0.00%    100.00% |           0      0.00%    100.00% |           0      0.00%    100.00% |           0      0.00%    100.00% |           0      0.00%    100.00% (Unspecified)
system.caches.RequestType.ST.hit_latency_hist_seqr::total     48570613                       (Unspecified)
system.caches.RequestType.ST.miss_latency_hist_seqr::bucket_size          256                       (Unspecified)
system.caches.RequestType.ST.miss_latency_hist_seqr::max_bucket         2559                       (Unspecified)
system.caches.RequestType.ST.miss_latency_hist_seqr::samples         3228                       (Unspecified)
system.caches.RequestType.ST.miss_latency_hist_seqr::mean    61.616171                       (Unspecified)
system.caches.RequestType.ST.miss_latency_hist_seqr::gmean    26.229717                       (Unspecified)
system.caches.RequestType.ST.miss_latency_hist_seqr::stdev   126.366621                       (Unspecified)
system.caches.RequestType.ST.miss_latency_hist_seqr |        3015     93.40%     93.40% |         175      5.42%     98.82% |          30      0.93%     99.75% |           4      0.12%     99.88% |           0      0.00%     99.88% |           0      0.00%     99.88% |           1      0.03%     99.91% |           1      0.03%     99.94% |           2      0.06%    100.00% |           0      0.00%    100.00% (Unspecified)
system.caches.RequestType.ST.miss_latency_hist_seqr::total         3228                       (Unspecified)
system.caches.RequestType.IFETCH.latency_hist_seqr::bucket_size          256                       (Unspecified)
system.caches.RequestType.IFETCH.latency_hist_seqr::max_bucket         2559                       (Unspecified)
system.caches.RequestType.IFETCH.latency_hist_seqr::samples       119615                       (Unspecified)
system.caches.RequestType.IFETCH.latency_hist_seqr::mean     9.492263                       (Unspecified)
system.caches.RequestType.IFETCH.latency_hist_seqr::gmean     1.756445                       (Unspecified)
system.caches.RequestType.IFETCH.latency_hist_seqr::stdev    43.830741                       (Unspecified)
system.caches.RequestType.IFETCH.latency_hist_seqr |      118564     99.12%     99.12% |        1016      0.85%     99.97% |          14      0.01%     99.98% |           3      0.00%     99.98% |           4      0.00%     99.99% |           8      0.01%     99.99% |           6      0.01%    100.00% |           0      0.00%    100.00% |           0      0.00%    100.00% |           0      0.00%    100.00% (Unspecified)
system.caches.RequestType.IFETCH.latency_hist_seqr::total       119615                       (Unspecified)
system.caches.RequestType.IFETCH.hit_latency_hist_seqr::bucket_size            1                       (Unspecified)
system.caches.RequestType.IFETCH.hit_latency_hist_seqr::max_bucket            9                       (Unspecified)
system.caches.RequestType.IFETCH.hit_latency_hist_seqr::samples        97000                       (Unspecified)
system.caches.RequestType.IFETCH.hit_latency_hist_seqr::mean            1                       (Unspecified)
system.caches.RequestType.IFETCH.hit_latency_hist_seqr::gmean            1                       (Unspecified)
system.caches.RequestType.IFETCH.hit_latency_hist_seqr |           0      0.00%      0.00% |       97000    100.00%    100.00% |           0      0.00%    100.00% |           0      0.00%    100.00% |           0      0.00%    100.00% |           0      0.00%    100.00% |           0      0.00%    100.00% |           0      0.00%    100.00% |           0      0.00%    100.00% |           0      0.00%    100.00% (Unspecified)
system.caches.RequestType.IFETCH.hit_latency_hist_seqr::total        97000                       (Unspecified)
system.caches.RequestType.IFETCH.miss_latency_hist_seqr::bucket_size          256                       (Unspecified)
system.caches.RequestType.IFETCH.miss_latency_hist_seqr::max_bucket         2559                       (Unspecified)
system.caches.RequestType.IFETCH.miss_latency_hist_seqr::samples        22615                       (Unspecified)
system.caches.RequestType.IFETCH.miss_latency_hist_seqr::mean    45.917179                       (Unspecified)
system.caches.RequestType.IFETCH.miss_latency_hist_seqr::gmean    19.675152                       (Unspecified)
system.caches.RequestType.IFETCH.miss_latency_hist_seqr::stdev    92.333237                       (Unspecified)
system.caches.RequestType.IFETCH.miss_latency_hist_seqr |       21564     95.35%     95.35% |        1016      4.49%     99.85% |          14      0.06%     99.91% |           3      0.01%     99.92% |           4      0.02%     99.94% |           8      0.04%     99.97% |           6      0.03%    100.00% |           0      0.00%    100.00% |           0      0.00%    100.00% |           0      0.00%    100.00% (Unspecified)
system.caches.RequestType.IFETCH.miss_latency_hist_seqr::total        22615                       (Unspecified)
system.caches.RequestType.RMW_Read.latency_hist_seqr::bucket_size          512                       (Unspecified)
system.caches.RequestType.RMW_Read.latency_hist_seqr::max_bucket         5119                       (Unspecified)
system.caches.RequestType.RMW_Read.latency_hist_seqr::samples     48406731                       (Unspecified)
system.caches.RequestType.RMW_Read.latency_hist_seqr::mean     1.030343                       (Unspecified)
system.caches.RequestType.RMW_Read.latency_hist_seqr::gmean     1.001328                       (Unspecified)
system.caches.RequestType.RMW_Read.latency_hist_seqr::stdev     2.692743                       (Unspecified)
system.caches.RequestType.RMW_Read.latency_hist_seqr |    48406611    100.00%    100.00% |         104      0.00%    100.00% |           1      0.00%    100.00% |           4      0.00%    100.00% |          10      0.00%    100.00% |           1      0.00%    100.00% |           0      0.00%    100.00% |           0      0.00%    100.00% |           0      0.00%    100.00% |           0      0.00%    100.00% (Unspecified)
system.caches.RequestType.RMW_Read.latency_hist_seqr::total     48406731                       (Unspecified)
system.caches.RequestType.RMW_Read.hit_latency_hist_seqr::bucket_size          256                       (Unspecified)
system.caches.RequestType.RMW_Read.hit_latency_hist_seqr::max_bucket         2559                       (Unspecified)
system.caches.RequestType.RMW_Read.hit_latency_hist_seqr::samples     48392109                       (Unspecified)
system.caches.RequestType.RMW_Read.hit_latency_hist_seqr::mean     1.000430                       (Unspecified)
system.caches.RequestType.RMW_Read.hit_latency_hist_seqr::gmean     1.000041                       (Unspecified)
system.caches.RequestType.RMW_Read.hit_latency_hist_seqr::stdev     0.438803                       (Unspecified)
system.caches.RequestType.RMW_Read.hit_latency_hist_seqr |    48392080    100.00%    100.00% |          25      0.00%    100.00% |           3      0.00%    100.00% |           0      0.00%    100.00% |           0      0.00%    100.00% |           0      0.00%    100.00% |           0      0.00%    100.00% |           0      0.00%    100.00% |           1      0.00%    100.00% |           0      0.00%    100.00% (Unspecified)
system.caches.RequestType.RMW_Read.hit_latency_hist_seqr::total     48392109                       (Unspecified)
system.caches.RequestType.RMW_Read.miss_latency_hist_seqr::bucket_size          512                       (Unspecified)
system.caches.RequestType.RMW_Read.miss_latency_hist_seqr::max_bucket         5119                       (Unspecified)
system.caches.RequestType.RMW_Read.miss_latency_hist_seqr::samples        14622                       (Unspecified)
system.caches.RequestType.RMW_Read.miss_latency_hist_seqr::mean   100.031254                       (Unspecified)
system.caches.RequestType.RMW_Read.miss_latency_hist_seqr::gmean    70.510018                       (Unspecified)
system.caches.RequestType.RMW_Read.miss_latency_hist_seqr::stdev   116.463811                       (Unspecified)
system.caches.RequestType.RMW_Read.miss_latency_hist_seqr |       14506     99.21%     99.21% |         101      0.69%     99.90% |           1      0.01%     99.90% |           4      0.03%     99.93% |           9      0.06%     99.99% |           1      0.01%    100.00% |           0      0.00%    100.00% |           0      0.00%    100.00% |           0      0.00%    100.00% |           0      0.00%    100.00% (Unspecified)
system.caches.RequestType.RMW_Read.miss_latency_hist_seqr::total        14622                       (Unspecified)
system.caches.RequestType.Locked_RMW_Read.latency_hist_seqr::bucket_size          128                       (Unspecified)
system.caches.RequestType.Locked_RMW_Read.latency_hist_seqr::max_bucket         1279                       (Unspecified)
system.caches.RequestType.Locked_RMW_Read.latency_hist_seqr::samples         1908                       (Unspecified)
system.caches.RequestType.Locked_RMW_Read.latency_hist_seqr::mean    21.493711                       (Unspecified)
system.caches.RequestType.Locked_RMW_Read.latency_hist_seqr::gmean     2.685817                       (Unspecified)
system.caches.RequestType.Locked_RMW_Read.latency_hist_seqr::stdev    74.109518                       (Unspecified)
system.caches.RequestType.Locked_RMW_Read.latency_hist_seqr |        1837     96.28%     96.28% |          11      0.58%     96.86% |          43      2.25%     99.11% |           8      0.42%     99.53% |           6      0.31%     99.84% |           1      0.05%     99.90% |           2      0.10%    100.00% |           0      0.00%    100.00% |           0      0.00%    100.00% |           0      0.00%    100.00% (Unspecified)
system.caches.RequestType.Locked_RMW_Read.latency_hist_seqr::total         1908                       (Unspecified)
system.caches.RequestType.Locked_RMW_Read.hit_latency_hist_seqr::bucket_size            1                       (Unspecified)
system.caches.RequestType.Locked_RMW_Read.hit_latency_hist_seqr::max_bucket            9                       (Unspecified)
system.caches.RequestType.Locked_RMW_Read.hit_latency_hist_seqr::samples         1346                       (Unspecified)
system.caches.RequestType.Locked_RMW_Read.hit_latency_hist_seqr::mean            1                       (Unspecified)
system.caches.RequestType.Locked_RMW_Read.hit_latency_hist_seqr::gmean            1                       (Unspecified)
system.caches.RequestType.Locked_RMW_Read.hit_latency_hist_seqr |           0      0.00%      0.00% |        1346    100.00%    100.00% |           0      0.00%    100.00% |           0      0.00%    100.00% |           0      0.00%    100.00% |           0      0.00%    100.00% |           0      0.00%    100.00% |           0      0.00%    100.00% |           0      0.00%    100.00% |           0      0.00%    100.00% (Unspecified)
system.caches.RequestType.Locked_RMW_Read.hit_latency_hist_seqr::total         1346                       (Unspecified)
system.caches.RequestType.Locked_RMW_Read.miss_latency_hist_seqr::bucket_size          128                       (Unspecified)
system.caches.RequestType.Locked_RMW_Read.miss_latency_hist_seqr::max_bucket         1279                       (Unspecified)
system.caches.RequestType.Locked_RMW_Read.miss_latency_hist_seqr::samples          562                       (Unspecified)
system.caches.RequestType.Locked_RMW_Read.miss_latency_hist_seqr::mean    70.576512                       (Unspecified)
system.caches.RequestType.Locked_RMW_Read.miss_latency_hist_seqr::gmean    28.623452                       (Unspecified)
system.caches.RequestType.Locked_RMW_Read.miss_latency_hist_seqr::stdev   123.484966                       (Unspecified)
system.caches.RequestType.Locked_RMW_Read.miss_latency_hist_seqr |         491     87.37%     87.37% |          11      1.96%     89.32% |          43      7.65%     96.98% |           8      1.42%     98.40% |           6      1.07%     99.47% |           1      0.18%     99.64% |           2      0.36%    100.00% |           0      0.00%    100.00% |           0      0.00%    100.00% |           0      0.00%    100.00% (Unspecified)
system.caches.RequestType.Locked_RMW_Read.miss_latency_hist_seqr::total          562                       (Unspecified)
system.caches.RequestType.Locked_RMW_Write.latency_hist_seqr::bucket_size            1                       (Unspecified)
system.caches.RequestType.Locked_RMW_Write.latency_hist_seqr::max_bucket            9                       (Unspecified)
system.caches.RequestType.Locked_RMW_Write.latency_hist_seqr::samples         1908                       (Unspecified)
system.caches.RequestType.Locked_RMW_Write.latency_hist_seqr::mean            1                       (Unspecified)
system.caches.RequestType.Locked_RMW_Write.latency_hist_seqr::gmean            1                       (Unspecified)
system.caches.RequestType.Locked_RMW_Write.latency_hist_seqr |           0      0.00%      0.00% |        1908    100.00%    100.00% |           0      0.00%    100.00% |           0      0.00%    100.00% |           0      0.00%    100.00% |           0      0.00%    100.00% |           0      0.00%    100.00% |           0      0.00%    100.00% |           0      0.00%    100.00% |           0      0.00%    100.00% (Unspecified)
system.caches.RequestType.Locked_RMW_Write.latency_hist_seqr::total         1908                       (Unspecified)
system.caches.RequestType.Locked_RMW_Write.hit_latency_hist_seqr::bucket_size            1                       (Unspecified)
system.caches.RequestType.Locked_RMW_Write.hit_latency_hist_seqr::max_bucket            9                       (Unspecified)
system.caches.RequestType.Locked_RMW_Write.hit_latency_hist_seqr::samples         1908                       (Unspecified)
system.caches.RequestType.Locked_RMW_Write.hit_latency_hist_seqr::mean            1                       (Unspecified)
[...]
system.o3Cpu7.fetch.branchRate               0.037468                       # Number of branch fetches per cycle (Ratio)
system.o3Cpu7.fetch.rate                     0.299169                       # Number of inst fetches per cycle ((Count/Cycle))
system.o3Cpu7.iew.idleCycles                        0                       # Number of cycles IEW is idle (Cycle)
system.o3Cpu7.iew.squashCycles                   1379                       # Number of cycles IEW is squashing (Cycle)
system.o3Cpu7.iew.blockCycles               117130914                       # Number of cycles IEW is blocking (Cycle)
system.o3Cpu7.iew.unblockCycles                387116                       # Number of cycles IEW is unblocking (Cycle)
system.o3Cpu7.iew.dispatchedInsts            85117368                       # Number of instructions dispatched to IQ (Count)
system.o3Cpu7.iew.dispSquashedInsts               313                       # Number of squashed instructions skipped by dispatch (Count)
system.o3Cpu7.iew.dispLoadInsts              12160733                       # Number of dispatched load instructions (Count)
system.o3Cpu7.iew.dispStoreInsts              6081082                       # Number of dispatched store instructions (Count)
system.o3Cpu7.iew.dispNonSpecInsts               1376                       # Number of dispatched non-speculative instructions (Count)
system.o3Cpu7.iew.iqFullEvents                   1019                       # Number of times the IQ has become full, causing a stall (Count)
system.o3Cpu7.iew.lsqFullEvents                  6494                       # Number of times the LSQ has become full, causing a stall (Count)
system.o3Cpu7.iew.memOrderViolationEvents          679                       # Number of memory order violations (Count)
system.o3Cpu7.iew.predictedTakenIncorrect          335                       # Number of branches that were predicted taken incorrectly (Count)
system.o3Cpu7.iew.predictedNotTakenIncorrect          418                       # Number of branches that were predicted not taken incorrectly (Count)
system.o3Cpu7.iew.branchMispredicts               753                       # Number of branch mispredicts detected at execute (Count)
system.o3Cpu7.iew.instsToCommit              85103006                       # Cumulative count of insts sent to commit (Count)
system.o3Cpu7.iew.writebackCount             85102745                       # Cumulative count of insts written-back (Count)
system.o3Cpu7.iew.producerInst               64644174                       # Number of instructions producing a value (Count)
system.o3Cpu7.iew.consumerInst               99666187                       # Number of instructions consuming a value (Count)
system.o3Cpu7.iew.wbRate                     0.523472                       # Insts written-back per cycle ((Count/Cycle))
system.o3Cpu7.iew.wbFanout                   0.648607                       # Average fanout of values written-back ((Count/Count))
system.o3Cpu7.interrupts.clk_domain.clock         3200                       # Clock period in ticks (Tick)
system.o3Cpu7.lsq0.forwLoads                    13474                       # Number of loads that had data forwarded from stores (Count)
system.o3Cpu7.lsq0.squashedLoads                 5966                       # Number of loads squashed (Count)
system.o3Cpu7.lsq0.ignoredResponses                22                       # Number of memory responses ignored because the instruction is squashed (Count)
system.o3Cpu7.lsq0.memOrderViolation              679                       # Number of memory ordering violations (Count)
system.o3Cpu7.lsq0.squashedStores                2747                       # Number of stores squashed (Count)
system.o3Cpu7.lsq0.rescheduledLoads                14                       # Number of loads that were rescheduled (Count)
system.o3Cpu7.lsq0.blockedByCache                  16                       # Number of times an access to memory failed due to the cache being blocked (Count)
system.o3Cpu7.lsq0.loadToUse::samples        12154749                       # Distribution of cycle latency between the first time a load is issued and its completion (Unspecified)
system.o3Cpu7.lsq0.loadToUse::mean          13.388517                       # Distribution of cycle latency between the first time a load is issued and its completion (Unspecified)
system.o3Cpu7.lsq0.loadToUse::stdev         68.261412                       # Distribution of cycle latency between the first time a load is issued and its completion (Unspecified)
system.o3Cpu7.lsq0.loadToUse::0-9            11770403     96.84%     96.84% # Distribution of cycle latency between the first time a load is issued and its completion (Unspecified)
system.o3Cpu7.lsq0.loadToUse::10-19              1989      0.02%     96.85% # Distribution of cycle latency between the first time a load is issued and its completion (Unspecified)
system.o3Cpu7.lsq0.loadToUse::20-29               401      0.00%     96.86% # Distribution of cycle latency between the first time a load is issued and its completion (Unspecified)
system.o3Cpu7.lsq0.loadToUse::30-39               345      0.00%     96.86% # Distribution of cycle latency between the first time a load is issued and its completion (Unspecified)
system.o3Cpu7.lsq0.loadToUse::40-49               146      0.00%     96.86% # Distribution of cycle latency between the first time a load is issued and its completion (Unspecified)
system.o3Cpu7.lsq0.loadToUse::50-59               102      0.00%     96.86% # Distribution of cycle latency between the first time a load is issued and its completion (Unspecified)
system.o3Cpu7.lsq0.loadToUse::60-69                42      0.00%     96.86% # Distribution of cycle latency between the first time a load is issued and its completion (Unspecified)
system.o3Cpu7.lsq0.loadToUse::70-79              1336      0.01%     96.87% # Distribution of cycle latency between the first time a load is issued and its completion (Unspecified)
system.o3Cpu7.lsq0.loadToUse::80-89                87      0.00%     96.87% # Distribution of cycle latency between the first time a load is issued and its completion (Unspecified)
system.o3Cpu7.lsq0.loadToUse::90-99                22      0.00%     96.87% # Distribution of cycle latency between the first time a load is issued and its completion (Unspecified)
system.o3Cpu7.lsq0.loadToUse::100-109              18      0.00%     96.87% # Distribution of cycle latency between the first time a load is issued and its completion (Unspecified)
system.o3Cpu7.lsq0.loadToUse::110-119              18      0.00%     96.87% # Distribution of cycle latency between the first time a load is issued and its completion (Unspecified)
system.o3Cpu7.lsq0.loadToUse::120-129              33      0.00%     96.88% # Distribution of cycle latency between the first time a load is issued and its completion (Unspecified)
system.o3Cpu7.lsq0.loadToUse::130-139              18      0.00%     96.88% # Distribution of cycle latency between the first time a load is issued and its completion (Unspecified)
system.o3Cpu7.lsq0.loadToUse::140-149               3      0.00%     96.88% # Distribution of cycle latency between the first time a load is issued and its completion (Unspecified)
system.o3Cpu7.lsq0.loadToUse::160-169               3      0.00%     96.88% # Distribution of cycle latency between the first time a load is issued and its completion (Unspecified)
system.o3Cpu7.lsq0.loadToUse::170-179               5      0.00%     96.88% # Distribution of cycle latency between the first time a load is issued and its completion (Unspecified)
system.o3Cpu7.lsq0.loadToUse::180-189               5      0.00%     96.88% # Distribution of cycle latency between the first time a load is issued and its completion (Unspecified)
system.o3Cpu7.lsq0.loadToUse::190-199               3      0.00%     96.88% # Distribution of cycle latency between the first time a load is issued and its completion (Unspecified)
system.o3Cpu7.lsq0.loadToUse::200-209               4      0.00%     96.88% # Distribution of cycle latency between the first time a load is issued and its completion (Unspecified)
system.o3Cpu7.lsq0.loadToUse::210-219          139502      1.15%     98.02% # Distribution of cycle latency between the first time a load is issued and its completion (Unspecified)
system.o3Cpu7.lsq0.loadToUse::220-229            1529      0.01%     98.04% # Distribution of cycle latency between the first time a load is issued and its completion (Unspecified)
system.o3Cpu7.lsq0.loadToUse::230-239             547      0.00%     98.04% # Distribution of cycle latency between the first time a load is issued and its completion (Unspecified)
system.o3Cpu7.lsq0.loadToUse::240-249             358      0.00%     98.04% # Distribution of cycle latency between the first time a load is issued and its completion (Unspecified)
system.o3Cpu7.lsq0.loadToUse::250-259             444      0.00%     98.05% # Distribution of cycle latency between the first time a load is issued and its completion (Unspecified)
system.o3Cpu7.lsq0.loadToUse::260-269             550      0.00%     98.05% # Distribution of cycle latency between the first time a load is issued and its completion (Unspecified)
system.o3Cpu7.lsq0.loadToUse::270-279            1918      0.02%     98.07% # Distribution of cycle latency between the first time a load is issued and its completion (Unspecified)
system.o3Cpu7.lsq0.loadToUse::280-289           14429      0.12%     98.19% # Distribution of cycle latency between the first time a load is issued and its completion (Unspecified)
system.o3Cpu7.lsq0.loadToUse::290-299             747      0.01%     98.19% # Distribution of cycle latency between the first time a load is issued and its completion (Unspecified)
system.o3Cpu7.lsq0.loadToUse::overflows        219742      1.81%    100.00% # Distribution of cycle latency between the first time a load is issued and its completion (Unspecified)
system.o3Cpu7.lsq0.loadToUse::min_value             2                       # Distribution of cycle latency between the first time a load is issued and its completion (Unspecified)
system.o3Cpu7.lsq0.loadToUse::max_value          3061                       # Distribution of cycle latency between the first time a load is issued and its completion (Unspecified)
system.o3Cpu7.lsq0.loadToUse::total          12154749                       # Distribution of cycle latency between the first time a load is issued and its completion (Unspecified)
system.o3Cpu7.mmu.dtb.rdAccesses             12160060                       # TLB accesses on read requests (Count)
system.o3Cpu7.mmu.dtb.wrAccesses              6080574                       # TLB accesses on write requests (Count)
system.o3Cpu7.mmu.dtb.rdMisses                   1034                       # TLB misses on read requests (Count)
system.o3Cpu7.mmu.dtb.wrMisses                    730                       # TLB misses on write requests (Count)
system.o3Cpu7.mmu.dtb.walker.power_state.pwrStateResidencyTicks::UNDEFINED  33524875600                       # Cumulative time (in ticks) in various power states (Tick)
system.o3Cpu7.mmu.itb.rdAccesses                    0                       # TLB accesses on read requests (Count)
system.o3Cpu7.mmu.itb.wrAccesses                14515                       # TLB accesses on write requests (Count)
system.o3Cpu7.mmu.itb.rdMisses                      0                       # TLB misses on read requests (Count)
system.o3Cpu7.mmu.itb.wrMisses                     82                       # TLB misses on write requests (Count)
system.o3Cpu7.mmu.itb.walker.power_state.pwrStateResidencyTicks::UNDEFINED  33524875600                       # Cumulative time (in ticks) in various power states (Tick)
system.o3Cpu7.power_state.pwrStateResidencyTicks::OFF  33524875600                       # Cumulative time (in ticks) in various power states (Tick)
system.o3Cpu7.rename.squashCycles                1379                       # Number of cycles rename is squashing (Cycle)
system.o3Cpu7.rename.idleCycles               6426186                       # Number of cycles rename is idle (Cycle)
system.o3Cpu7.rename.blockCycles            127394333                       # Number of cycles rename is blocking (Cycle)
system.o3Cpu7.rename.serializeStallCycles        61017                       # count of cycles rename stalled for serializing inst (Cycle)
system.o3Cpu7.rename.runCycles                8253582                       # Number of cycles rename is running (Cycle)
system.o3Cpu7.rename.unblockCycles           20370476                       # Number of cycles rename is unblocking (Cycle)
system.o3Cpu7.rename.renamedInsts            85121066                       # Number of instructions processed by rename (Count)
system.o3Cpu7.rename.ROBFullEvents               8802                       # Number of times rename has blocked due to ROB full (Count)
system.o3Cpu7.rename.IQFullEvents            19078070                       # Number of times rename has blocked due to IQ full (Count)
system.o3Cpu7.rename.LQFullEvents                5643                       # Number of times rename has blocked due to LQ full (Count)
system.o3Cpu7.rename.SQFullEvents                4694                       # Number of times rename has blocked due to SQ full (Count)
system.o3Cpu7.rename.renamedOperands        194418020                       # Number of destination operands rename has renamed (Count)
system.o3Cpu7.rename.lookups                322104708                       # Number of register rename lookups that rename has made (Count)
system.o3Cpu7.rename.intLookups             139782159                       # Number of integer rename lookups (Count)
system.o3Cpu7.rename.committedMaps          194348755                       # Number of HB maps that are committed (Count)
system.o3Cpu7.rename.undoneMaps                 68970                       # Number of HB maps that are undone due to squashing (Count)
system.o3Cpu7.rename.serializing                 1441                       # count of serializing insts renamed (Count)
system.o3Cpu7.rename.tempSerializing             1508                       # count of temporary serializing insts renamed (Count)
system.o3Cpu7.rename.skidInsts               40122333                       # count of insts added to the skid buffer (Count)
system.o3Cpu7.rob.reads                     241537841                       # The number of ROB reads (Count)
system.o3Cpu7.rob.writes                    170234868                       # The number of ROB writes (Count)
system.o3Cpu7.thread_0.numInsts              48599275                       # Number of Instructions committed (Count)
system.o3Cpu7.thread_0.numOps                85077913                       # Number of Ops committed (Count)
system.o3Cpu7.thread_0.numMemRefs                   0                       # Number of Memory References (Count)
system.pc.bad_addr.power_state.pwrStateResidencyTicks::UNDEFINED  33524875600                       # Cumulative time (in ticks) in various power states (Tick)
system.pc.com_1.power_state.pwrStateResidencyTicks::UNDEFINED  33524875600                       # Cumulative time (in ticks) in various power states (Tick)
system.pc.default_bus.power_state.pwrStateResidencyTicks::UNDEFINED  33524875600                       # Cumulative time (in ticks) in various power states (Tick)
system.pc.empty_isa.power_state.pwrStateResidencyTicks::UNDEFINED  33524875600                       # Cumulative time (in ticks) in various power states (Tick)
system.pc.fake_com_2.power_state.pwrStateResidencyTicks::UNDEFINED  33524875600                       # Cumulative time (in ticks) in various power states (Tick)
system.pc.fake_com_3.power_state.pwrStateResidencyTicks::UNDEFINED  33524875600                       # Cumulative time (in ticks) in various power states (Tick)
system.pc.fake_com_4.power_state.pwrStateResidencyTicks::UNDEFINED  33524875600                       # Cumulative time (in ticks) in various power states (Tick)
system.pc.fake_floppy.power_state.pwrStateResidencyTicks::UNDEFINED  33524875600                       # Cumulative time (in ticks) in various power states (Tick)
system.pc.pci_host.power_state.pwrStateResidencyTicks::UNDEFINED  33524875600                       # Cumulative time (in ticks) in various power states (Tick)
system.pc.south_bridge.cmos.power_state.pwrStateResidencyTicks::UNDEFINED  33524875600                       # Cumulative time (in ticks) in various power states (Tick)
system.pc.south_bridge.dma1.power_state.pwrStateResidencyTicks::UNDEFINED  33524875600                       # Cumulative time (in ticks) in various power states (Tick)
system.pc.south_bridge.ide.disks0.IdeDisk.dmaReadFullPages            0                       # Number of full page size DMA reads (not PRD). (Count)
system.pc.south_bridge.ide.disks0.IdeDisk.dmaReadBytes            0                       # Number of bytes transfered via DMA reads (not PRD). (Byte)
system.pc.south_bridge.ide.disks0.IdeDisk.dmaReadTxs            0                       # Number of DMA read transactions (not PRD). (Count)
system.pc.south_bridge.ide.disks0.IdeDisk.dmaWriteFullPages            0                       # Number of full page size DMA writes. (Count)
system.pc.south_bridge.ide.disks0.IdeDisk.dmaWriteBytes            0                       # Number of bytes transfered via DMA writes. (Byte)
system.pc.south_bridge.ide.disks0.IdeDisk.dmaWriteTxs            0                       # Number of DMA write transactions. (Count)
system.pc.south_bridge.ide.disks1.IdeDisk.dmaReadFullPages            0                       # Number of full page size DMA reads (not PRD). (Count)
system.pc.south_bridge.ide.disks1.IdeDisk.dmaReadBytes            0                       # Number of bytes transfered via DMA reads (not PRD). (Byte)
system.pc.south_bridge.ide.disks1.IdeDisk.dmaReadTxs            0                       # Number of DMA read transactions (not PRD). (Count)
system.pc.south_bridge.ide.disks1.IdeDisk.dmaWriteFullPages            0                       # Number of full page size DMA writes. (Count)
system.pc.south_bridge.ide.disks1.IdeDisk.dmaWriteBytes            0                       # Number of bytes transfered via DMA writes. (Byte)
system.pc.south_bridge.ide.disks1.IdeDisk.dmaWriteTxs            0                       # Number of DMA write transactions. (Count)
system.pc.south_bridge.ide.power_state.pwrStateResidencyTicks::UNDEFINED  33524875600                       # Cumulative time (in ticks) in various power states (Tick)
system.pc.south_bridge.io_apic.power_state.pwrStateResidencyTicks::UNDEFINED  33524875600                       # Cumulative time (in ticks) in various power states (Tick)
system.pc.south_bridge.keyboard.power_state.pwrStateResidencyTicks::UNDEFINED  33524875600                       # Cumulative time (in ticks) in various power states (Tick)
system.pc.south_bridge.pic1.power_state.pwrStateResidencyTicks::UNDEFINED  33524875600                       # Cumulative time (in ticks) in various power states (Tick)
system.pc.south_bridge.pic2.power_state.pwrStateResidencyTicks::UNDEFINED  33524875600                       # Cumulative time (in ticks) in various power states (Tick)
system.pc.south_bridge.pit.power_state.pwrStateResidencyTicks::UNDEFINED  33524875600                       # Cumulative time (in ticks) in various power states (Tick)
system.pc.south_bridge.speaker.power_state.pwrStateResidencyTicks::UNDEFINED  33524875600                       # Cumulative time (in ticks) in various power states (Tick)
system.workload.inst.arm                            0                       # number of arm instructions executed (Count)
system.workload.inst.quiesce                        0                       # number of quiesce instructions executed (Count)

---------- End Simulation Statistics   ----------
