
---------- Begin Simulation Statistics ----------
simSeconds                                   0.046287                       # Number of seconds simulated (Second)
simTicks                                  46287343050                       # Number of ticks simulated (Tick)
finalTick                                108095667444000                       # Number of ticks from beginning of simulation (restored from checkpoints and never reset) (Tick)
simFreq                                  1000000000000                       # The number of ticks per simulated second ((Tick/Second))
hostSeconds                                   7262.32                       # Real time elapsed on the host (Second)
hostTickRate                                  6373634                       # The number of ticks simulated per host second (ticks/s) ((Tick/Second))
hostMemory                                   19965684                       # Number of bytes of host memory used (Byte)
simInsts                                    235149848                       # Number of instructions simulated (Count)
simOps                                      433088738                       # Number of ops (including micro ops) simulated (Count)
hostInstRate                                    32379                       # Simulator instruction rate (inst/s) ((Count/Second))
hostOpRate                                      59635                       # Simulator op (including micro ops) rate (op/s) ((Count/Second))
system.caches.delayHistogram::bucket_size           64                       # delay histogram for all message (Unspecified)
system.caches.delayHistogram::max_bucket          639                       # delay histogram for all message (Unspecified)
system.caches.delayHistogram::samples        91363781                       # delay histogram for all message (Unspecified)
system.caches.delayHistogram::mean           2.315097                       # delay histogram for all message (Unspecified)
system.caches.delayHistogram::stdev          6.927345                       # delay histogram for all message (Unspecified)
system.caches.delayHistogram             |    91363731    100.00%    100.00% |          47      0.00%    100.00% |           1      0.00%    100.00% |           1      0.00%    100.00% |           0      0.00%    100.00% |           1      0.00%    100.00% |           0      0.00%    100.00% |           0      0.00%    100.00% |           0      0.00%    100.00% |           0      0.00%    100.00% # delay histogram for all message (Unspecified)
system.caches.delayHistogram::total          91363781                       # delay histogram for all message (Unspecified)
system.caches.m_outstandReqHistSeqr::bucket_size            2                       (Unspecified)
system.caches.m_outstandReqHistSeqr::max_bucket           19                       (Unspecified)
system.caches.m_outstandReqHistSeqr::samples    128873736                       (Unspecified)
system.caches.m_outstandReqHistSeqr::mean     5.121206                       (Unspecified)
system.caches.m_outstandReqHistSeqr::gmean     3.996245                       (Unspecified)
system.caches.m_outstandReqHistSeqr::stdev     3.098620                       (Unspecified)
system.caches.m_outstandReqHistSeqr      |    19364464     15.03%     15.03% |    30602900     23.75%     38.77% |    19411083     15.06%     53.83% |    25969727     20.15%     73.99% |    21857208     16.96%     90.95% |    11044236      8.57%     99.52% |      616717      0.48%     99.99% |        6584      0.01%    100.00% |         817      0.00%    100.00% |           0      0.00%    100.00% (Unspecified)
system.caches.m_outstandReqHistSeqr::total    128873736                       (Unspecified)
system.caches.m_latencyHistSeqr::bucket_size         1024                       (Unspecified)
system.caches.m_latencyHistSeqr::max_bucket        10239                       (Unspecified)
system.caches.m_latencyHistSeqr::samples    128877305                       (Unspecified)
system.caches.m_latencyHistSeqr::mean       23.891552                       (Unspecified)
system.caches.m_latencyHistSeqr::gmean       2.221507                       (Unspecified)
system.caches.m_latencyHistSeqr::stdev     103.565756                       (Unspecified)
system.caches.m_latencyHistSeqr          |   128788366     99.93%     99.93% |       31723      0.02%     99.96% |       56625      0.04%    100.00% |         540      0.00%    100.00% |          45      0.00%    100.00% |           6      0.00%    100.00% |           0      0.00%    100.00% |           0      0.00%    100.00% |           0      0.00%    100.00% |           0      0.00%    100.00% (Unspecified)
system.caches.m_latencyHistSeqr::total      128877305                       (Unspecified)
system.caches.m_hitLatencyHistSeqr::bucket_size          256                       (Unspecified)
system.caches.m_hitLatencyHistSeqr::max_bucket         2559                       (Unspecified)
system.caches.m_hitLatencyHistSeqr::samples     98521591                       (Unspecified)
system.caches.m_hitLatencyHistSeqr::mean     1.004193                       (Unspecified)
system.caches.m_hitLatencyHistSeqr::gmean     1.001665                       (Unspecified)
system.caches.m_hitLatencyHistSeqr::stdev     0.981433                       (Unspecified)
system.caches.m_hitLatencyHistSeqr       |    98521233    100.00%    100.00% |         312      0.00%    100.00% |          40      0.00%    100.00% |           2      0.00%    100.00% |           1      0.00%    100.00% |           0      0.00%    100.00% |           1      0.00%    100.00% |           1      0.00%    100.00% |           0      0.00%    100.00% |           1      0.00%    100.00% (Unspecified)
system.caches.m_hitLatencyHistSeqr::total     98521591                       (Unspecified)
system.caches.m_missLatencyHistSeqr::bucket_size         1024                       (Unspecified)
system.caches.m_missLatencyHistSeqr::max_bucket        10239                       (Unspecified)
system.caches.m_missLatencyHistSeqr::samples     30355714                       (Unspecified)
system.caches.m_missLatencyHistSeqr::mean    98.174077                       (Unspecified)
system.caches.m_missLatencyHistSeqr::gmean    29.469439                       (Unspecified)
system.caches.m_missLatencyHistSeqr::stdev   195.745404                       (Unspecified)
system.caches.m_missLatencyHistSeqr      |    30266779     99.71%     99.71% |       31720      0.10%     99.81% |       56624      0.19%    100.00% |         540      0.00%    100.00% |          45      0.00%    100.00% |           6      0.00%    100.00% |           0      0.00%    100.00% |           0      0.00%    100.00% |           0      0.00%    100.00% |           0      0.00%    100.00% (Unspecified)
system.caches.m_missLatencyHistSeqr::total     30355714                       (Unspecified)
system.caches.delayVCHist.vnet_0::bucket_size           64                       # delay histogram for vnet_0 (Unspecified)
system.caches.delayVCHist.vnet_0::max_bucket          639                       # delay histogram for vnet_0 (Unspecified)
system.caches.delayVCHist.vnet_0::samples     42102702                       # delay histogram for vnet_0 (Unspecified)
system.caches.delayVCHist.vnet_0::mean       0.114290                       # delay histogram for vnet_0 (Unspecified)
system.caches.delayVCHist.vnet_0::stdev      0.882800                       # delay histogram for vnet_0 (Unspecified)
system.caches.delayVCHist.vnet_0         |    42102654    100.00%    100.00% |          45      0.00%    100.00% |           1      0.00%    100.00% |           1      0.00%    100.00% |           0      0.00%    100.00% |           1      0.00%    100.00% |           0      0.00%    100.00% |           0      0.00%    100.00% |           0      0.00%    100.00% |           0      0.00%    100.00% # delay histogram for vnet_0 (Unspecified)
system.caches.delayVCHist.vnet_0::total      42102702                       # delay histogram for vnet_0 (Unspecified)
system.caches.delayVCHist.vnet_1::bucket_size            8                       # delay histogram for vnet_1 (Unspecified)
system.caches.delayVCHist.vnet_1::max_bucket           79                       # delay histogram for vnet_1 (Unspecified)
system.caches.delayVCHist.vnet_1::samples     48509094                       # delay histogram for vnet_1 (Unspecified)
system.caches.delayVCHist.vnet_1::mean       4.261111                       # delay histogram for vnet_1 (Unspecified)
system.caches.delayVCHist.vnet_1::stdev      9.035058                       # delay histogram for vnet_1 (Unspecified)
system.caches.delayVCHist.vnet_1         |    39534633     81.50%     81.50% |     2546835      5.25%     86.75% |     2568389      5.29%     92.04% |     2051724      4.23%     96.27% |     1434302      2.96%     99.23% |      335487      0.69%     99.92% |       37616      0.08%    100.00% |         106      0.00%    100.00% |           2      0.00%    100.00% |           0      0.00%    100.00% # delay histogram for vnet_1 (Unspecified)
system.caches.delayVCHist.vnet_1::total      48509094                       # delay histogram for vnet_1 (Unspecified)
system.caches.delayVCHist.vnet_2::bucket_size            1                       # delay histogram for vnet_2 (Unspecified)
system.caches.delayVCHist.vnet_2::max_bucket            9                       # delay histogram for vnet_2 (Unspecified)
system.caches.delayVCHist.vnet_2::samples       751985                       # delay histogram for vnet_2 (Unspecified)
system.caches.delayVCHist.vnet_2::mean       0.001896                       # delay histogram for vnet_2 (Unspecified)
system.caches.delayVCHist.vnet_2::stdev      0.061555                       # delay histogram for vnet_2 (Unspecified)
system.caches.delayVCHist.vnet_2         |      751272     99.91%     99.91% |           0      0.00%     99.91% |         713      0.09%    100.00% |           0      0.00%    100.00% |           0      0.00%    100.00% |           0      0.00%    100.00% |           0      0.00%    100.00% |           0      0.00%    100.00% |           0      0.00%    100.00% |           0      0.00%    100.00% # delay histogram for vnet_2 (Unspecified)
system.caches.delayVCHist.vnet_2::total        751985                       # delay histogram for vnet_2 (Unspecified)
system.caches.L1Cache_Controller.Load    |     8152402     12.28%     12.28% |     8286999     12.48%     24.75% |     8316787     12.52%     37.28% |     8377950     12.61%     49.89% |     8434226     12.70%     62.59% |     8243365     12.41%     75.00% |     8417335     12.67%     87.68% |     8184322     12.32%    100.00% (Unspecified)
system.caches.L1Cache_Controller.Load::total     66413386                       (Unspecified)
system.caches.L1Cache_Controller.Ifetch  |     7816929     12.66%     12.66% |     7708526     12.49%     25.15% |     7701090     12.48%     37.63% |     7704292     12.48%     50.11% |     7748322     12.55%     62.67% |     7736138     12.53%     75.20% |     7710051     12.49%     87.69% |     7597602     12.31%    100.00% (Unspecified)
system.caches.L1Cache_Controller.Ifetch::total     61722950                       (Unspecified)
system.caches.L1Cache_Controller.Store   |      104790     14.14%     14.14% |       91137     12.30%     26.44% |       91056     12.29%     38.73% |       90979     12.28%     51.01% |       90116     12.16%     63.17% |       90062     12.15%     75.32% |       90951     12.27%     87.60% |       91892     12.40%    100.00% (Unspecified)
system.caches.L1Cache_Controller.Store::total       740983                       (Unspecified)
system.caches.L1Cache_Controller.Inv     |       84341     12.77%     12.77% |       81870     12.40%     25.17% |       83362     12.63%     37.80% |       81835     12.39%     50.19% |       81999     12.42%     62.61% |       82795     12.54%     75.15% |       81912     12.41%     87.56% |       82129     12.44%    100.00% (Unspecified)
system.caches.L1Cache_Controller.Inv::total       660243                       (Unspecified)
system.caches.L1Cache_Controller.L1_Replacement |     3837263     12.67%     12.67% |     3782725     12.49%     25.15% |     3779951     12.48%     37.63% |     3782091     12.48%     50.11% |     3803088     12.55%     62.66% |     3797427     12.53%     75.20% |     3785008     12.49%     87.69% |     3730079     12.31%    100.00% (Unspecified)
system.caches.L1Cache_Controller.L1_Replacement::total     30297632                       (Unspecified)
system.caches.L1Cache_Controller.Fwd_GETX |           6      7.69%      7.69% |          20     25.64%     33.33% |          12     15.38%     48.72% |          11     14.10%     62.82% |           5      6.41%     69.23% |           5      6.41%     75.64% |          10     12.82%     88.46% |           9     11.54%    100.00% (Unspecified)
system.caches.L1Cache_Controller.Fwd_GETX::total           78                       (Unspecified)
system.caches.L1Cache_Controller.Fwd_GETS |       12318     13.44%     13.44% |       11448     12.49%     25.93% |       11398     12.43%     38.36% |       11416     12.45%     50.82% |       11177     12.19%     63.01% |       11371     12.41%     75.42% |       11146     12.16%     87.58% |       11387     12.42%    100.00% (Unspecified)
system.caches.L1Cache_Controller.Fwd_GETS::total        91661                       (Unspecified)
system.caches.L1Cache_Controller.Fwd_GET_INSTR |           3    100.00%    100.00% |           0      0.00%    100.00% |           0      0.00%    100.00% |           0      0.00%    100.00% |           0      0.00%    100.00% |           0      0.00%    100.00% |           0      0.00%    100.00% |           0      0.00%    100.00% (Unspecified)
system.caches.L1Cache_Controller.Fwd_GET_INSTR::total            3                       (Unspecified)
system.caches.L1Cache_Controller.Data    |          83     96.51%     96.51% |           0      0.00%     96.51% |           0      0.00%     96.51% |           1      1.16%     97.67% |           1      1.16%     98.84% |           0      0.00%     98.84% |           0      0.00%     98.84% |           1      1.16%    100.00% (Unspecified)
system.caches.L1Cache_Controller.Data::total           86                       (Unspecified)
system.caches.L1Cache_Controller.Data_Exclusive |      740093     12.66%     12.66% |      730057     12.49%     25.15% |      730545     12.50%     37.64% |      729719     12.48%     50.12% |      733496     12.55%     62.67% |      733535     12.55%     75.21% |      729409     12.48%     87.69% |      719818     12.31%    100.00% (Unspecified)
system.caches.L1Cache_Controller.Data_Exclusive::total      5846672                       (Unspecified)
system.caches.L1Cache_Controller.DataS_fromL1 |       11401     12.44%     12.44% |       11598     12.65%     25.09% |       11639     12.70%     37.79% |       11496     12.54%     50.33% |       11704     12.77%     63.10% |       11516     12.56%     75.66% |       11245     12.27%     87.93% |       11065     12.07%    100.00% (Unspecified)
system.caches.L1Cache_Controller.DataS_fromL1::total        91664                       (Unspecified)
system.caches.L1Cache_Controller.Data_all_Acks |     3091021     12.67%     12.67% |     3047044     12.48%     25.15% |     3043625     12.47%     37.62% |     3046798     12.48%     50.10% |     3063914     12.55%     62.66% |     3058201     12.53%     75.19% |     3050137     12.50%     87.69% |     3005097     12.31%    100.00% (Unspecified)
system.caches.L1Cache_Controller.Data_all_Acks::total     24405837                       (Unspecified)
system.caches.L1Cache_Controller.Ack     |       11335     14.62%     14.62% |        7313      9.43%     24.05% |        6691      8.63%     32.68% |       10098     13.02%     45.70% |       11779     15.19%     60.89% |        8961     11.56%     72.44% |       12649     16.31%     88.76% |        8720     11.24%    100.00% (Unspecified)
system.caches.L1Cache_Controller.Ack::total        77546                       (Unspecified)
system.caches.L1Cache_Controller.Ack_all |        1888     16.36%     16.36% |        1075      9.31%     25.67% |         981      8.50%     34.17% |        1479     12.82%     46.99% |        1717     14.88%     61.87% |        1296     11.23%     73.10% |        1835     15.90%     89.00% |        1270     11.00%    100.00% (Unspecified)
system.caches.L1Cache_Controller.Ack_all::total        11541                       (Unspecified)
system.caches.L1Cache_Controller.WB_Ack  |      734695     12.73%     12.73% |      720324     12.48%     25.21% |      719468     12.47%     37.68% |      720041     12.48%     50.16% |      723831     12.54%     62.70% |      722686     12.52%     75.23% |      719995     12.48%     87.70% |      709510     12.30%    100.00% (Unspecified)
system.caches.L1Cache_Controller.WB_Ack::total      5770550                       (Unspecified)
system.caches.L1Cache_Controller.NP.Load |     3826560     12.65%     12.65% |     3776019     12.49%     25.14% |     3773110     12.48%     37.62% |     3775338     12.48%     50.10% |     3796851     12.56%     62.66% |     3791202     12.54%     75.19% |     3778228     12.49%     87.69% |     3723081     12.31%    100.00% (Unspecified)
system.caches.L1Cache_Controller.NP.Load::total     30240389                       (Unspecified)
system.caches.L1Cache_Controller.NP.Ifetch |        6919     21.93%     21.93% |        3567     11.31%     33.24% |        3708     11.75%     45.00% |        3630     11.51%     56.50% |        3086      9.78%     66.29% |        3085      9.78%     76.07% |        3656     11.59%     87.66% |        3894     12.34%    100.00% (Unspecified)
system.caches.L1Cache_Controller.NP.Ifetch::total        31545                       (Unspecified)
system.caches.L1Cache_Controller.NP.Store |        3975     14.94%     14.94% |        3257     12.24%     27.19% |        3252     12.23%     39.42% |        3243     12.19%     51.61% |        3205     12.05%     63.66% |        3197     12.02%     75.68% |        3243     12.19%     87.87% |        3227     12.13%    100.00% (Unspecified)
system.caches.L1Cache_Controller.NP.Store::total        26599                       (Unspecified)
system.caches.L1Cache_Controller.NP.Inv  |       73512     12.79%     12.79% |       71808     12.49%     25.27% |       72128     12.54%     37.82% |       71571     12.45%     50.27% |       71408     12.42%     62.68% |       71702     12.47%     75.15% |       71548     12.44%     87.60% |       71309     12.40%    100.00% (Unspecified)
system.caches.L1Cache_Controller.NP.Inv::total       574986                       (Unspecified)
system.caches.L1Cache_Controller.I.Load  |          77      2.10%      2.10% |         533     14.52%     16.62% |         498     13.57%     30.18% |         552     15.04%     45.22% |         638     17.38%     62.60% |         428     11.66%     74.26% |         405     11.03%     85.29% |         540     14.71%    100.00% (Unspecified)
system.caches.L1Cache_Controller.I.Load::total         3671                       (Unspecified)
system.caches.L1Cache_Controller.I.Ifetch |        5066     12.05%     12.05% |        5323     12.67%     24.72% |        5238     12.46%     37.19% |        5249     12.49%     49.68% |        5334     12.69%     62.37% |        5338     12.70%     75.07% |        5258     12.51%     87.58% |        5219     12.42%    100.00% (Unspecified)
system.caches.L1Cache_Controller.I.Ifetch::total        42025                       (Unspecified)
system.caches.L1Cache_Controller.I.Store |           2      5.13%      5.13% |           2      5.13%     10.26% |           4     10.26%     20.51% |           3      7.69%     28.21% |           1      2.56%     30.77% |           3      7.69%     38.46% |           2      5.13%     43.59% |          22     56.41%    100.00% (Unspecified)
system.caches.L1Cache_Controller.I.Store::total           39                       (Unspecified)
system.caches.L1Cache_Controller.I.L1_Replacement |        5643      8.27%      8.27% |        8304     12.17%     20.45% |        9582     14.05%     34.49% |        8550     12.53%     47.02% |        8761     12.84%     59.87% |        9469     13.88%     73.75% |        8786     12.88%     86.63% |        9122     13.37%    100.00% (Unspecified)
system.caches.L1Cache_Controller.I.L1_Replacement::total        68217                       (Unspecified)
system.caches.L1Cache_Controller.S.Load  |      794431      9.82%      9.82% |     1048839     12.96%     22.78% |     1078838     13.34%     36.12% |     1100139     13.60%     49.72% |     1153468     14.26%     63.98% |      983438     12.16%     76.13% |     1183387     14.63%     90.76% |      747304      9.24%    100.00% (Unspecified)
system.caches.L1Cache_Controller.S.Load::total      8089844                       (Unspecified)
system.caches.L1Cache_Controller.S.Ifetch |     7804941     12.66%     12.66% |     7699636     12.49%     25.15% |     7692144     12.48%     37.63% |     7695413     12.48%     50.11% |     7739902     12.55%     62.66% |     7727715     12.53%     75.20% |     7701137     12.49%     87.69% |     7588489     12.31%    100.00% (Unspecified)
system.caches.L1Cache_Controller.S.Ifetch::total     61649377                       (Unspecified)
system.caches.L1Cache_Controller.S.Store |        1805     15.76%     15.76% |        1075      9.38%     25.14% |         981      8.56%     33.71% |        1478     12.90%     46.61% |        1716     14.98%     61.59% |        1296     11.31%     72.90% |        1835     16.02%     88.92% |        1269     11.08%    100.00% (Unspecified)
system.caches.L1Cache_Controller.S.Store::total        11455                       (Unspecified)
system.caches.L1Cache_Controller.S.Inv   |        8684     13.38%     13.38% |        8246     12.71%     26.09% |        8086     12.46%     38.54% |        8068     12.43%     50.98% |        7921     12.20%     63.18% |        7904     12.18%     75.36% |        7820     12.05%     87.41% |        8172     12.59%    100.00% (Unspecified)
system.caches.L1Cache_Controller.S.Inv::total        64901                       (Unspecified)
system.caches.L1Cache_Controller.S.L1_Replacement |     3096925     12.66%     12.66% |     3054097     12.49%     25.15% |     3050901     12.47%     37.62% |     3053500     12.48%     50.11% |     3070495     12.55%     62.66% |     3065272     12.53%     75.19% |     3056227     12.50%     87.69% |     3011447     12.31%    100.00% (Unspecified)
system.caches.L1Cache_Controller.S.L1_Replacement::total     24458864                       (Unspecified)
system.caches.L1Cache_Controller.E.Load  |     3473401     12.53%     12.53% |     3416552     12.33%     24.86% |     3419634     12.34%     37.20% |     3457443     12.48%     49.68% |     3439624     12.41%     62.09% |     3424407     12.36%     74.45% |     3411325     12.31%     86.76% |     3668568     13.24%    100.00% (Unspecified)
system.caches.L1Cache_Controller.E.Load::total     27710954                       (Unspecified)
system.caches.L1Cache_Controller.E.Store |        6327     12.77%     12.77% |        6489     13.10%     25.87% |        6582     13.29%     39.15% |        6086     12.28%     51.44% |        5805     11.72%     63.16% |        6225     12.56%     75.72% |        5723     11.55%     87.27% |        6306     12.73%    100.00% (Unspecified)
system.caches.L1Cache_Controller.E.Store::total        49543                       (Unspecified)
system.caches.L1Cache_Controller.E.Inv   |        1935     10.19%     10.19% |        1599      8.42%     18.62% |        2908     15.32%     33.93% |        2007     10.57%     44.51% |        2585     13.62%     58.12% |        3032     15.97%     74.09% |        2455     12.93%     87.03% |        2463     12.97%    100.00% (Unspecified)
system.caches.L1Cache_Controller.E.Inv::total        18984                       (Unspecified)
system.caches.L1Cache_Controller.E.L1_Replacement |      720297     12.66%     12.66% |      710809     12.49%     25.16% |      709908     12.48%     37.63% |      710473     12.49%     50.12% |      714115     12.55%     62.68% |      713197     12.54%     75.21% |      710284     12.49%     87.70% |      699905     12.30%    100.00% (Unspecified)
system.caches.L1Cache_Controller.E.L1_Replacement::total      5688988                       (Unspecified)
system.caches.L1Cache_Controller.E.Fwd_GETX |           1      5.56%      5.56% |           9     50.00%     55.56% |           1      5.56%     61.11% |           1      5.56%     66.67% |           0      0.00%     66.67% |           0      0.00%     66.67% |           1      5.56%     72.22% |           5     27.78%    100.00% (Unspecified)
system.caches.L1Cache_Controller.E.Fwd_GETX::total           18                       (Unspecified)
system.caches.L1Cache_Controller.E.Fwd_GETS |       10807     12.99%     12.99% |       10390     12.49%     25.48% |       10415     12.52%     38.01% |       10393     12.50%     50.50% |       10261     12.34%     62.84% |       10334     12.42%     75.26% |       10185     12.24%     87.51% |       10392     12.49%    100.00% (Unspecified)
system.caches.L1Cache_Controller.E.Fwd_GETS::total        83177                       (Unspecified)
system.caches.L1Cache_Controller.E.Fwd_GET_INSTR |           3    100.00%    100.00% |           0      0.00%    100.00% |           0      0.00%    100.00% |           0      0.00%    100.00% |           0      0.00%    100.00% |           0      0.00%    100.00% |           0      0.00%    100.00% |           0      0.00%    100.00% (Unspecified)
system.caches.L1Cache_Controller.E.Fwd_GET_INSTR::total            3                       (Unspecified)
system.caches.L1Cache_Controller.M.Load  |       57933     15.72%     15.72% |       45056     12.23%     27.95% |       44706     12.13%     40.08% |       44478     12.07%     52.15% |       43645     11.84%     63.99% |       43890     11.91%     75.90% |       43990     11.94%     87.84% |       44828     12.16%    100.00% (Unspecified)
system.caches.L1Cache_Controller.M.Load::total       368526                       (Unspecified)
system.caches.L1Cache_Controller.M.Store |       92681     14.19%     14.19% |       80314     12.29%     26.48% |       80237     12.28%     38.76% |       80169     12.27%     51.03% |       79389     12.15%     63.18% |       79341     12.14%     75.32% |       80148     12.27%     87.59% |       81068     12.41%    100.00% (Unspecified)
system.caches.L1Cache_Controller.M.Store::total       653347                       (Unspecified)
system.caches.L1Cache_Controller.M.Inv   |         208     16.21%     16.21% |         202     15.74%     31.96% |         228     17.77%     49.73% |         171     13.33%     63.06% |          51      3.98%     67.03% |         151     11.77%     78.80% |          87      6.78%     85.58% |         185     14.42%    100.00% (Unspecified)
system.caches.L1Cache_Controller.M.Inv::total         1283                       (Unspecified)
system.caches.L1Cache_Controller.M.L1_Replacement |       14398     17.65%     17.65% |        9515     11.67%     29.32% |        9560     11.72%     41.04% |        9568     11.73%     52.77% |        9716     11.91%     64.68% |        9489     11.63%     76.32% |        9711     11.91%     88.22% |        9605     11.78%    100.00% (Unspecified)
system.caches.L1Cache_Controller.M.L1_Replacement::total        81562                       (Unspecified)
system.caches.L1Cache_Controller.M.Fwd_GETX |           5      8.33%      8.33% |          11     18.33%     26.67% |          11     18.33%     45.00% |          10     16.67%     61.67% |           5      8.33%     70.00% |           5      8.33%     78.33% |           9     15.00%     93.33% |           4      6.67%    100.00% (Unspecified)
system.caches.L1Cache_Controller.M.Fwd_GETX::total           60                       (Unspecified)
system.caches.L1Cache_Controller.M.Fwd_GETS |        1511     17.81%     17.81% |        1058     12.47%     30.28% |         983     11.59%     41.87% |        1023     12.06%     53.93% |         916     10.80%     64.72% |        1037     12.22%     76.94% |         961     11.33%     88.27% |         995     11.73%    100.00% (Unspecified)
system.caches.L1Cache_Controller.M.Fwd_GETS::total         8484                       (Unspecified)
system.caches.L1Cache_Controller.IS.Inv  |           2      2.30%      2.30% |          15     17.24%     19.54% |          12     13.79%     33.33% |          18     20.69%     54.02% |          34     39.08%     93.10% |           5      5.75%     98.85% |           1      1.15%    100.00% |           0      0.00%    100.00% (Unspecified)
system.caches.L1Cache_Controller.IS.Inv::total           87                       (Unspecified)
system.caches.L1Cache_Controller.IS.L1_Replacement |           0      0.00%      0.00% |           0      0.00%      0.00% |           0      0.00%      0.00% |           0      0.00%      0.00% |           1    100.00%    100.00% |           0      0.00%    100.00% |           0      0.00%    100.00% |           0      0.00%    100.00% (Unspecified)
system.caches.L1Cache_Controller.IS.L1_Replacement::total            1                       (Unspecified)
system.caches.L1Cache_Controller.IS.Data_Exclusive |      740091     12.66%     12.66% |      730056     12.49%     25.15% |      730545     12.50%     37.64% |      729719     12.48%     50.12% |      733495     12.55%     62.67% |      733534     12.55%     75.21% |      729408     12.48%     87.69% |      719818     12.31%    100.00% (Unspecified)
system.caches.L1Cache_Controller.IS.Data_Exclusive::total      5846666                       (Unspecified)
system.caches.L1Cache_Controller.IS.DataS_fromL1 |       11401     12.44%     12.44% |       11598     12.65%     25.09% |       11639     12.70%     37.79% |       11496     12.54%     50.33% |       11704     12.77%     63.10% |       11516     12.56%     75.66% |       11245     12.27%     87.93% |       11065     12.07%    100.00% (Unspecified)
system.caches.L1Cache_Controller.IS.DataS_fromL1::total        91664                       (Unspecified)
system.caches.L1Cache_Controller.IS.Data_all_Acks |     3087127     12.66%     12.66% |     3043771     12.49%     25.15% |     3040357     12.47%     37.62% |     3043535     12.48%     50.10% |     3060676     12.55%     62.66% |     3054997     12.53%     75.19% |     3046892     12.50%     87.69% |     3001849     12.31%    100.00% (Unspecified)
system.caches.L1Cache_Controller.IS.Data_all_Acks::total     24379204                       (Unspecified)
system.caches.L1Cache_Controller.IM.Data |          83     96.51%     96.51% |           0      0.00%     96.51% |           0      0.00%     96.51% |           1      1.16%     97.67% |           1      1.16%     98.84% |           0      0.00%     98.84% |           0      0.00%     98.84% |           1      1.16%    100.00% (Unspecified)
system.caches.L1Cache_Controller.IM.Data::total           86                       (Unspecified)
system.caches.L1Cache_Controller.IM.Data_all_Acks |        3894     14.67%     14.67% |        3259     12.27%     26.94% |        3256     12.26%     39.20% |        3245     12.22%     51.42% |        3205     12.07%     63.49% |        3200     12.05%     75.55% |        3245     12.22%     87.77% |        3248     12.23%    100.00% (Unspecified)
system.caches.L1Cache_Controller.IM.Data_all_Acks::total        26552                       (Unspecified)
system.caches.L1Cache_Controller.SM.Ack  |       11335     14.62%     14.62% |        7313      9.43%     24.05% |        6691      8.63%     32.68% |       10098     13.02%     45.70% |       11779     15.19%     60.89% |        8961     11.56%     72.44% |       12649     16.31%     88.76% |        8720     11.24%    100.00% (Unspecified)
system.caches.L1Cache_Controller.SM.Ack::total        77546                       (Unspecified)
system.caches.L1Cache_Controller.SM.Ack_all |        1888     16.36%     16.36% |        1075      9.31%     25.67% |         981      8.50%     34.17% |        1479     12.82%     46.99% |        1717     14.88%     61.87% |        1296     11.23%     73.10% |        1835     15.90%     89.00% |        1270     11.00%    100.00% (Unspecified)
system.caches.L1Cache_Controller.SM.Ack_all::total        11541                       (Unspecified)
system.caches.L1Cache_Controller.IS_I.Data_Exclusive |           2     33.33%     33.33% |           1     16.67%     50.00% |           0      0.00%     50.00% |           0      0.00%     50.00% |           1     16.67%     66.67% |           1     16.67%     83.33% |           1     16.67%    100.00% |           0      0.00%    100.00% (Unspecified)
system.caches.L1Cache_Controller.IS_I.Data_Exclusive::total            6                       (Unspecified)
system.caches.L1Cache_Controller.IS_I.Data_all_Acks |           0      0.00%      0.00% |          14     17.28%     17.28% |          12     14.81%     32.10% |          18     22.22%     54.32% |          33     40.74%     95.06% |           4      4.94%    100.00% |           0      0.00%    100.00% |           0      0.00%    100.00% (Unspecified)
system.caches.L1Cache_Controller.IS_I.Data_all_Acks::total           81                       (Unspecified)
system.caches.L1Cache_Controller.M_I.Load |           0      0.00%      0.00% |           0      0.00%      0.00% |           1     50.00%     50.00% |           0      0.00%     50.00% |           0      0.00%     50.00% |           0      0.00%     50.00% |           0      0.00%     50.00% |           1     50.00%    100.00% (Unspecified)
system.caches.L1Cache_Controller.M_I.Load::total            2                       (Unspecified)
system.caches.L1Cache_Controller.M_I.Ifetch |           3    100.00%    100.00% |           0      0.00%    100.00% |           0      0.00%    100.00% |           0      0.00%    100.00% |           0      0.00%    100.00% |           0      0.00%    100.00% |           0      0.00%    100.00% |           0      0.00%    100.00% (Unspecified)
system.caches.L1Cache_Controller.M_I.Ifetch::total            3                       (Unspecified)
system.caches.L1Cache_Controller.M_I.Inv |           0      0.00%      0.00% |           0      0.00%      0.00% |           0      0.00%      0.00% |           0      0.00%      0.00% |           0      0.00%      0.00% |           1     50.00%     50.00% |           1     50.00%    100.00% |           0      0.00%    100.00% (Unspecified)
system.caches.L1Cache_Controller.M_I.Inv::total            2                       (Unspecified)
system.caches.L1Cache_Controller.M_I.WB_Ack |      734695     12.73%     12.73% |      720324     12.48%     25.21% |      719468     12.47%     37.68% |      720041     12.48%     50.16% |      723831     12.54%     62.70% |      722685     12.52%     75.23% |      719994     12.48%     87.70% |      709510     12.30%    100.00% (Unspecified)
system.caches.L1Cache_Controller.M_I.WB_Ack::total      5770548                       (Unspecified)
system.caches.L1Cache_Controller.SINK_WB_ACK.WB_Ack |           0      0.00%      0.00% |           0      0.00%      0.00% |           0      0.00%      0.00% |           0      0.00%      0.00% |           0      0.00%      0.00% |           1     50.00%     50.00% |           1     50.00%    100.00% |           0      0.00%    100.00% (Unspecified)
system.caches.L1Cache_Controller.SINK_WB_ACK.WB_Ack::total            2                       (Unspecified)
system.caches.Directory_Controller.Fetch |       13494      0.23%      0.23% |     5801976     99.77%    100.00% (Unspecified)
system.caches.Directory_Controller.Fetch::total      5815470                       (Unspecified)
system.caches.Directory_Controller.Data  |         864      0.62%      0.62% |      138490     99.38%    100.00% (Unspecified)
system.caches.Directory_Controller.Data::total       139354                       (Unspecified)
system.caches.Directory_Controller.Memory_Data |       13494      0.23%      0.23% |     5801967     99.77%    100.00% (Unspecified)
system.caches.Directory_Controller.Memory_Data::total      5815461                       (Unspecified)
system.caches.Directory_Controller.Memory_Ack |         864      0.62%      0.62% |      138490     99.38%    100.00% (Unspecified)
system.caches.Directory_Controller.Memory_Ack::total       139354                       (Unspecified)
system.caches.Directory_Controller.CleanReplacement |       12476      0.22%      0.22% |     5663639     99.78%    100.00% (Unspecified)
system.caches.Directory_Controller.CleanReplacement::total      5676115                       (Unspecified)
system.caches.Directory_Controller.I.Fetch |       13494      0.23%      0.23% |     5801976     99.77%    100.00% (Unspecified)
system.caches.Directory_Controller.I.Fetch::total      5815470                       (Unspecified)
system.caches.Directory_Controller.M.Data |         864      0.62%      0.62% |      138490     99.38%    100.00% (Unspecified)
system.caches.Directory_Controller.M.Data::total       139354                       (Unspecified)
system.caches.Directory_Controller.M.CleanReplacement |       12476      0.22%      0.22% |     5663639     99.78%    100.00% (Unspecified)
system.caches.Directory_Controller.M.CleanReplacement::total      5676115                       (Unspecified)
system.caches.Directory_Controller.IM.Memory_Data |       13494      0.23%      0.23% |     5801967     99.77%    100.00% (Unspecified)
system.caches.Directory_Controller.IM.Memory_Data::total      5815461                       (Unspecified)
system.caches.Directory_Controller.MI.Memory_Ack |         864      0.62%      0.62% |      138490     99.38%    100.00% (Unspecified)
system.caches.Directory_Controller.MI.Memory_Ack::total       139354                       (Unspecified)
system.caches.L2Cache_Controller.L1_GET_INSTR |       10397     14.08%     14.08% |        9367     12.69%     26.77% |        8738     11.83%     38.60% |        6335      8.58%     47.18% |        9043     12.25%     59.42% |        9188     12.44%     71.87% |       10258     13.89%     85.76% |       10515     14.24%    100.00% (Unspecified)
system.caches.L2Cache_Controller.L1_GET_INSTR::total        73841                       (Unspecified)
system.caches.L2Cache_Controller.L1_GETS |     3786107     12.52%     12.52% |     3785091     12.51%     25.03% |     3778240     12.49%     37.52% |     3779920     12.50%     50.02% |     3786214     12.52%     62.54% |     3780070     12.50%     75.04% |     3774623     12.48%     87.52% |     3775163     12.48%    100.00% (Unspecified)
system.caches.L2Cache_Controller.L1_GETS::total     30245428                       (Unspecified)
system.caches.L2Cache_Controller.L1_GETX |        3786     14.18%     14.18% |        3191     11.95%     26.13% |        2220      8.31%     34.45% |        2945     11.03%     45.48% |        3196     11.97%     57.45% |        4407     16.51%     73.95% |        3296     12.35%     86.30% |        3658     13.70%    100.00% (Unspecified)
system.caches.L2Cache_Controller.L1_GETX::total        26699                       (Unspecified)
system.caches.L2Cache_Controller.L1_UPGRADE |        1398     12.11%     12.11% |        1402     12.15%     24.26% |        1414     12.25%     36.52% |        1409     12.21%     48.73% |        1424     12.34%     61.07% |        1381     11.97%     73.03% |        1715     14.86%     87.89% |        1397     12.11%    100.00% (Unspecified)
system.caches.L2Cache_Controller.L1_UPGRADE::total        11540                       (Unspecified)
system.caches.L2Cache_Controller.L1_PUTX |      721813     12.51%     12.51% |      721635     12.51%     25.01% |      719496     12.47%     37.48% |      720915     12.49%     49.98% |      721163     12.50%     62.47% |      722721     12.52%     75.00% |      721159     12.50%     87.49% |      721646     12.51%    100.00% (Unspecified)
system.caches.L2Cache_Controller.L1_PUTX::total      5770548                       (Unspecified)
system.caches.L2Cache_Controller.L1_PUTX_old |           0      0.00%      0.00% |           2     50.00%     50.00% |           0      0.00%     50.00% |           0      0.00%     50.00% |           2     50.00%    100.00% |           0      0.00%    100.00% |           0      0.00%    100.00% |           0      0.00%    100.00% (Unspecified)
system.caches.L2Cache_Controller.L1_PUTX_old::total            4                       (Unspecified)
system.caches.L2Cache_Controller.L2_Replacement |       17511     12.68%     12.68% |       16884     12.23%     24.91% |       16110     11.67%     36.57% |       17088     12.37%     48.94% |       16975     12.29%     61.24% |       18315     13.26%     74.50% |       17335     12.55%     87.05% |       17885     12.95%    100.00% (Unspecified)
system.caches.L2Cache_Controller.L2_Replacement::total       138103                       (Unspecified)
system.caches.L2Cache_Controller.L2_Replacement_clean |      710420     12.51%     12.51% |      710581     12.52%     25.03% |      709171     12.49%     37.52% |      709178     12.49%     50.01% |      709664     12.50%     62.51% |      709663     12.50%     75.01% |      709068     12.49%     87.50% |      709622     12.50%    100.00% (Unspecified)
system.caches.L2Cache_Controller.L2_Replacement_clean::total      5677367                       (Unspecified)
system.caches.L2Cache_Controller.Mem_Data |      727929     12.52%     12.52% |      727463     12.51%     25.03% |      725280     12.47%     37.50% |      726266     12.49%     49.99% |      726636     12.49%     62.48% |      727978     12.52%     75.00% |      726403     12.49%     87.49% |      727506     12.51%    100.00% (Unspecified)
system.caches.L2Cache_Controller.Mem_Data::total      5815461                       (Unspecified)
system.caches.L2Cache_Controller.Mem_Ack |      727931     12.52%     12.52% |      727464     12.51%     25.03% |      725281     12.47%     37.50% |      726266     12.49%     49.99% |      726639     12.49%     62.48% |      727978     12.52%     75.00% |      726403     12.49%     87.49% |      727507     12.51%    100.00% (Unspecified)
system.caches.L2Cache_Controller.Mem_Ack::total      5815469                       (Unspecified)
system.caches.L2Cache_Controller.WB_Data |        1273     13.03%     13.03% |        1190     12.18%     25.22% |        1135     11.62%     36.84% |        1161     11.89%     48.73% |        1216     12.45%     61.18% |        1169     11.97%     73.14% |        1444     14.78%     87.93% |        1179     12.07%    100.00% (Unspecified)
system.caches.L2Cache_Controller.WB_Data::total         9767                       (Unspecified)
system.caches.L2Cache_Controller.WB_Data_clean |       10665     12.82%     12.82% |       10466     12.58%     25.40% |       10338     12.43%     37.83% |       10424     12.53%     50.36% |       10251     12.32%     62.69% |       10389     12.49%     75.18% |       10239     12.31%     87.49% |       10410     12.51%    100.00% (Unspecified)
system.caches.L2Cache_Controller.WB_Data_clean::total        83182                       (Unspecified)
system.caches.L2Cache_Controller.Ack     |       64708     13.27%     13.27% |       61957     12.71%     25.98% |       60705     12.45%     38.43% |       58609     12.02%     50.45% |       59812     12.27%     62.71% |       60353     12.38%     75.09% |       58919     12.08%     87.17% |       62545     12.83%    100.00% (Unspecified)
system.caches.L2Cache_Controller.Ack::total       487608                       (Unspecified)
system.caches.L2Cache_Controller.Ack_all |       12324     13.15%     13.15% |       11996     12.80%     25.95% |       11660     12.44%     38.39% |       11300     12.06%     50.45% |       11501     12.27%     62.73% |       11511     12.28%     75.01% |       11435     12.20%     87.21% |       11984     12.79%    100.00% (Unspecified)
system.caches.L2Cache_Controller.Ack_all::total        93711                       (Unspecified)
system.caches.L2Cache_Controller.Unblock |       11758     12.83%     12.83% |       11509     12.56%     25.38% |       11353     12.39%     37.77% |       11427     12.47%     50.23% |       11308     12.34%     62.57% |       11372     12.41%     74.98% |       11517     12.56%     87.54% |       11420     12.46%    100.00% (Unspecified)
system.caches.L2Cache_Controller.Unblock::total        91664                       (Unspecified)
system.caches.L2Cache_Controller.Exclusive_Unblock |      736492     12.52%     12.52% |      736011     12.51%     25.02% |      733546     12.47%     37.49% |      735078     12.49%     49.98% |      735251     12.49%     62.47% |      736921     12.52%     75.00% |      735594     12.50%     87.50% |      735872     12.50%    100.00% (Unspecified)
system.caches.L2Cache_Controller.Exclusive_Unblock::total      5884765                       (Unspecified)
system.caches.L2Cache_Controller.NP.L1_GET_INSTR |        1514     13.35%     13.35% |        1505     13.27%     26.62% |        1411     12.44%     39.07% |        1110      9.79%     48.85% |        1422     12.54%     61.39% |        1369     12.07%     73.47% |        1407     12.41%     85.87% |        1602     14.13%    100.00% (Unspecified)
system.caches.L2Cache_Controller.NP.L1_GET_INSTR::total        11340                       (Unspecified)
system.caches.L2Cache_Controller.NP.L1_GETS |      722992     12.51%     12.51% |      722975     12.51%     25.02% |      721679     12.49%     37.51% |      722308     12.50%     50.01% |      722160     12.50%     62.50% |      722528     12.50%     75.01% |      721898     12.49%     87.50% |      722444     12.50%    100.00% (Unspecified)
system.caches.L2Cache_Controller.NP.L1_GETS::total      5778984                       (Unspecified)
system.caches.L2Cache_Controller.NP.L1_GETX |        3425     13.62%     13.62% |        2985     11.87%     25.49% |        2191      8.71%     34.20% |        2848     11.33%     45.53% |        3057     12.16%     57.69% |        4081     16.23%     73.92% |        3098     12.32%     86.24% |        3461     13.76%    100.00% (Unspecified)
system.caches.L2Cache_Controller.NP.L1_GETX::total        25146                       (Unspecified)
system.caches.L2Cache_Controller.NP.L1_PUTX_old |           0      0.00%      0.00% |           1     50.00%     50.00% |           0      0.00%     50.00% |           0      0.00%     50.00% |           1     50.00%    100.00% |           0      0.00%    100.00% |           0      0.00%    100.00% |           0      0.00%    100.00% (Unspecified)
system.caches.L2Cache_Controller.NP.L1_PUTX_old::total            2                       (Unspecified)
system.caches.L2Cache_Controller.SS.L1_GET_INSTR |        6169     14.99%     14.99% |        4875     11.84%     26.83% |        4916     11.94%     38.77% |        3272      7.95%     46.72% |        5086     12.35%     59.07% |        4949     12.02%     71.09% |        6396     15.54%     86.63% |        5504     13.37%    100.00% (Unspecified)
system.caches.L2Cache_Controller.SS.L1_GET_INSTR::total        41167                       (Unspecified)
system.caches.L2Cache_Controller.SS.L1_GETS |     3041007     12.52%     12.52% |     3040895     12.51%     25.03% |     3035770     12.49%     37.52% |     3037015     12.50%     50.02% |     3043534     12.53%     62.55% |     3036851     12.50%     75.05% |     3031535     12.48%     87.52% |     3031940     12.48%    100.00% (Unspecified)
system.caches.L2Cache_Controller.SS.L1_GETS::total     24298547                       (Unspecified)
system.caches.L2Cache_Controller.SS.L1_GETX |          43     50.00%     50.00% |           0      0.00%     50.00% |           0      0.00%     50.00% |           0      0.00%     50.00% |           0      0.00%     50.00% |           1      1.16%     51.16% |          42     48.84%    100.00% |           0      0.00%    100.00% (Unspecified)
system.caches.L2Cache_Controller.SS.L1_GETX::total           86                       (Unspecified)
system.caches.L2Cache_Controller.SS.L1_UPGRADE |        1398     12.20%     12.20% |        1402     12.24%     24.44% |        1414     12.34%     36.79% |        1409     12.30%     49.09% |        1424     12.43%     61.52% |        1381     12.06%     73.57% |        1630     14.23%     87.80% |        1397     12.20%    100.00% (Unspecified)
system.caches.L2Cache_Controller.SS.L1_UPGRADE::total        11455                       (Unspecified)
system.caches.L2Cache_Controller.SS.L2_Replacement |         994     13.32%     13.32% |         963     12.91%     26.23% |         892     11.95%     38.18% |         907     12.15%     50.34% |         900     12.06%     62.40% |         929     12.45%     74.85% |         959     12.85%     87.70% |         918     12.30%    100.00% (Unspecified)
system.caches.L2Cache_Controller.SS.L2_Replacement::total         7462                       (Unspecified)
system.caches.L2Cache_Controller.SS.L2_Replacement_clean |        8914     13.25%     13.25% |        8604     12.79%     26.04% |        8438     12.54%     38.59% |        8074     12.00%     50.59% |        8268     12.29%     62.88% |        8244     12.26%     75.14% |        7999     11.89%     87.03% |        8725     12.97%    100.00% (Unspecified)
system.caches.L2Cache_Controller.SS.L2_Replacement_clean::total        67266                       (Unspecified)
system.caches.L2Cache_Controller.M.L1_GET_INSTR |           6     23.08%     23.08% |           4     15.38%     38.46% |           3     11.54%     50.00% |           1      3.85%     53.85% |           2      7.69%     61.54% |           2      7.69%     69.23% |           4     15.38%     84.62% |           4     15.38%    100.00% (Unspecified)
system.caches.L2Cache_Controller.M.L1_GET_INSTR::total           26                       (Unspecified)
system.caches.L2Cache_Controller.M.L1_GETS |        8791     12.60%     12.60% |        8758     12.55%     25.15% |        8571     12.28%     37.43% |        8623     12.36%     49.79% |        8690     12.45%     62.24% |        8781     12.58%     74.82% |        8823     12.64%     87.47% |        8745     12.53%    100.00% (Unspecified)
system.caches.L2Cache_Controller.M.L1_GETS::total        69782                       (Unspecified)
system.caches.L2Cache_Controller.M.L1_GETX |         236     17.77%     17.77% |         192     14.46%     32.23% |          26      1.96%     34.19% |          95      7.15%     41.34% |         127      9.56%     50.90% |         308     23.19%     74.10% |         150     11.30%     85.39% |         194     14.61%    100.00% (Unspecified)
system.caches.L2Cache_Controller.M.L1_GETX::total         1328                       (Unspecified)
system.caches.L2Cache_Controller.M.L2_Replacement |       16510     12.65%     12.65% |       15907     12.19%     24.84% |       15204     11.65%     36.48% |       16162     12.38%     48.87% |       16062     12.31%     61.17% |       17372     13.31%     74.48% |       16358     12.53%     87.01% |       16952     12.99%    100.00% (Unspecified)
system.caches.L2Cache_Controller.M.L2_Replacement::total       130527                       (Unspecified)
system.caches.L2Cache_Controller.M.L2_Replacement_clean |      698917     12.50%     12.50% |      699414     12.51%     25.02% |      698297     12.49%     37.51% |      698646     12.50%     50.01% |      698917     12.50%     62.51% |      698909     12.50%     75.01% |      698444     12.49%     87.51% |      698402     12.49%    100.00% (Unspecified)
system.caches.L2Cache_Controller.M.L2_Replacement_clean::total      5589946                       (Unspecified)
system.caches.L2Cache_Controller.MT.L1_GET_INSTR |           0      0.00%      0.00% |           1     33.33%     33.33% |           1     33.33%     66.67% |           0      0.00%     66.67% |           0      0.00%     66.67% |           0      0.00%     66.67% |           0      0.00%     66.67% |           1     33.33%    100.00% (Unspecified)
system.caches.L2Cache_Controller.MT.L1_GET_INSTR::total            3                       (Unspecified)
system.caches.L2Cache_Controller.MT.L1_GETS |       11758     12.83%     12.83% |       11508     12.55%     25.38% |       11352     12.38%     37.77% |       11427     12.47%     50.23% |       11308     12.34%     62.57% |       11372     12.41%     74.98% |       11517     12.56%     87.54% |       11419     12.46%    100.00% (Unspecified)
system.caches.L2Cache_Controller.MT.L1_GETS::total        91661                       (Unspecified)
system.caches.L2Cache_Controller.MT.L1_GETX |          41     52.56%     52.56% |          10     12.82%     65.38% |           3      3.85%     69.23% |           1      1.28%     70.51% |           7      8.97%     79.49% |           7      8.97%     88.46% |           6      7.69%     96.15% |           3      3.85%    100.00% (Unspecified)
system.caches.L2Cache_Controller.MT.L1_GETX::total           78                       (Unspecified)
system.caches.L2Cache_Controller.MT.L1_PUTX |      721813     12.51%     12.51% |      721635     12.51%     25.01% |      719496     12.47%     37.48% |      720915     12.49%     49.98% |      721163     12.50%     62.47% |      722721     12.52%     75.00% |      721159     12.50%     87.49% |      721646     12.51%    100.00% (Unspecified)
system.caches.L2Cache_Controller.MT.L1_PUTX::total      5770548                       (Unspecified)
system.caches.L2Cache_Controller.MT.L2_Replacement |           7      6.14%      6.14% |          14     12.28%     18.42% |          14     12.28%     30.70% |          19     16.67%     47.37% |          13     11.40%     58.77% |          14     12.28%     71.05% |          18     15.79%     86.84% |          15     13.16%    100.00% (Unspecified)
system.caches.L2Cache_Controller.MT.L2_Replacement::total          114                       (Unspecified)
system.caches.L2Cache_Controller.MT.L2_Replacement_clean |        2589     12.85%     12.85% |        2563     12.72%     25.56% |        2436     12.09%     37.65% |        2458     12.20%     49.84% |        2479     12.30%     62.14% |        2510     12.45%     74.60% |        2625     13.02%     87.62% |        2495     12.38%    100.00% (Unspecified)
system.caches.L2Cache_Controller.MT.L2_Replacement_clean::total        20155                       (Unspecified)
system.caches.L2Cache_Controller.M_I.L1_GET_INSTR |           1      0.38%      0.38% |           0      0.00%      0.38% |           0      0.00%      0.38% |           0      0.00%      0.38% |           0      0.00%      0.38% |           0      0.00%      0.38% |           2      0.77%      1.15% |         257     98.85%    100.00% (Unspecified)
system.caches.L2Cache_Controller.M_I.L1_GET_INSTR::total          260                       (Unspecified)
system.caches.L2Cache_Controller.M_I.L1_GETS |           8     16.67%     16.67% |          14     29.17%     45.83% |           3      6.25%     52.08% |           5     10.42%     62.50% |           4      8.33%     70.83% |           2      4.17%     75.00% |           8     16.67%     91.67% |           4      8.33%    100.00% (Unspecified)
system.caches.L2Cache_Controller.M_I.L1_GETS::total           48                       (Unspecified)
system.caches.L2Cache_Controller.M_I.L1_GETX |          20     54.05%     54.05% |           1      2.70%     56.76% |           0      0.00%     56.76% |           1      2.70%     59.46% |           5     13.51%     72.97% |          10     27.03%    100.00% |           0      0.00%    100.00% |           0      0.00%    100.00% (Unspecified)
system.caches.L2Cache_Controller.M_I.L1_GETX::total           37                       (Unspecified)
system.caches.L2Cache_Controller.M_I.Mem_Ack |      727931     12.52%     12.52% |      727464     12.51%     25.03% |      725281     12.47%     37.50% |      726266     12.49%     49.99% |      726639     12.49%     62.48% |      727978     12.52%     75.00% |      726403     12.49%     87.49% |      727507     12.51%    100.00% (Unspecified)
system.caches.L2Cache_Controller.M_I.Mem_Ack::total      5815469                       (Unspecified)
system.caches.L2Cache_Controller.MT_I.WB_Data |           5     15.62%     15.62% |           4     12.50%     28.12% |           1      3.12%     31.25% |           3      9.38%     40.62% |           1      3.12%     43.75% |           6     18.75%     62.50% |           6     18.75%     81.25% |           6     18.75%    100.00% (Unspecified)
system.caches.L2Cache_Controller.MT_I.WB_Data::total           32                       (Unspecified)
system.caches.L2Cache_Controller.MT_I.Ack_all |           2      2.44%      2.44% |          10     12.20%     14.63% |          13     15.85%     30.49% |          16     19.51%     50.00% |          12     14.63%     64.63% |           8      9.76%     74.39% |          12     14.63%     89.02% |           9     10.98%    100.00% (Unspecified)
system.caches.L2Cache_Controller.MT_I.Ack_all::total           82                       (Unspecified)
system.caches.L2Cache_Controller.MCT_I.L1_PUTX_old |           0      0.00%      0.00% |           1     50.00%     50.00% |           0      0.00%     50.00% |           0      0.00%     50.00% |           1     50.00%    100.00% |           0      0.00%    100.00% |           0      0.00%    100.00% |           0      0.00%    100.00% (Unspecified)
system.caches.L2Cache_Controller.MCT_I.L1_PUTX_old::total            2                       (Unspecified)
system.caches.L2Cache_Controller.MCT_I.WB_Data |         175     13.99%     13.99% |         142     11.35%     25.34% |         119      9.51%     34.85% |         155     12.39%     47.24% |         157     12.55%     59.79% |         180     14.39%     74.18% |         160     12.79%     86.97% |         163     13.03%    100.00% (Unspecified)
system.caches.L2Cache_Controller.MCT_I.WB_Data::total         1251                       (Unspecified)
system.caches.L2Cache_Controller.MCT_I.WB_Data_clean |           0      0.00%      0.00% |           1     50.00%     50.00% |           0      0.00%     50.00% |           0      0.00%     50.00% |           1     50.00%    100.00% |           0      0.00%    100.00% |           0      0.00%    100.00% |           0      0.00%    100.00% (Unspecified)
system.caches.L2Cache_Controller.MCT_I.WB_Data_clean::total            2                       (Unspecified)
system.caches.L2Cache_Controller.MCT_I.Ack_all |        2414     12.77%     12.77% |        2420     12.80%     25.57% |        2317     12.26%     37.83% |        2303     12.18%     50.02% |        2321     12.28%     62.29% |        2330     12.33%     74.62% |        2465     13.04%     87.66% |        2332     12.34%    100.00% (Unspecified)
system.caches.L2Cache_Controller.MCT_I.Ack_all::total        18902                       (Unspecified)
system.caches.L2Cache_Controller.I_I.L1_GET_INSTR |           0      0.00%      0.00% |           0      0.00%      0.00% |           0      0.00%      0.00% |           0      0.00%      0.00% |           0      0.00%      0.00% |           0      0.00%      0.00% |           0      0.00%      0.00% |           2    100.00%    100.00% (Unspecified)
system.caches.L2Cache_Controller.I_I.L1_GET_INSTR::total            2                       (Unspecified)
system.caches.L2Cache_Controller.I_I.L1_GETS |           0      0.00%      0.00% |           2     40.00%     40.00% |           1     20.00%     60.00% |           0      0.00%     60.00% |           0      0.00%     60.00% |           1     20.00%     80.00% |           1     20.00%    100.00% |           0      0.00%    100.00% (Unspecified)
system.caches.L2Cache_Controller.I_I.L1_GETS::total            5                       (Unspecified)
system.caches.L2Cache_Controller.I_I.Ack |       58072     13.27%     13.27% |       55548     12.69%     25.96% |       54713     12.50%     38.46% |       52472     11.99%     50.45% |       53813     12.30%     62.74% |       54087     12.36%     75.10% |       52508     12.00%     87.10% |       56466     12.90%    100.00% (Unspecified)
system.caches.L2Cache_Controller.I_I.Ack::total       437679                       (Unspecified)
system.caches.L2Cache_Controller.I_I.Ack_all |        8914     13.25%     13.25% |        8603     12.79%     26.04% |        8438     12.54%     38.59% |        8074     12.00%     50.59% |        8268     12.29%     62.88% |        8244     12.26%     75.14% |        7999     11.89%     87.03% |        8725     12.97%    100.00% (Unspecified)
system.caches.L2Cache_Controller.I_I.Ack_all::total        67265                       (Unspecified)
system.caches.L2Cache_Controller.S_I.L1_GETS |           0      0.00%      0.00% |           0      0.00%      0.00% |           0      0.00%      0.00% |           0      0.00%      0.00% |           1    100.00%    100.00% |           0      0.00%    100.00% |           0      0.00%    100.00% |           0      0.00%    100.00% (Unspecified)
system.caches.L2Cache_Controller.S_I.L1_GETS::total            1                       (Unspecified)
system.caches.L2Cache_Controller.S_I.Ack |        6636     13.29%     13.29% |        6409     12.84%     26.13% |        5992     12.00%     38.13% |        6137     12.29%     50.42% |        5999     12.02%     62.43% |        6266     12.55%     74.98% |        6411     12.84%     87.82% |        6079     12.18%    100.00% (Unspecified)
system.caches.L2Cache_Controller.S_I.Ack::total        49929                       (Unspecified)
system.caches.L2Cache_Controller.S_I.Ack_all |         994     13.32%     13.32% |         963     12.91%     26.23% |         892     11.95%     38.18% |         907     12.15%     50.34% |         900     12.06%     62.40% |         929     12.45%     74.85% |         959     12.85%     87.70% |         918     12.30%    100.00% (Unspecified)
system.caches.L2Cache_Controller.S_I.Ack_all::total         7462                       (Unspecified)
system.caches.L2Cache_Controller.ISS.L1_GETS |         432     20.72%     20.72% |         309     14.82%     35.54% |         337     16.16%     51.70% |         206      9.88%     61.58% |         211     10.12%     71.70% |         166      7.96%     79.66% |          53      2.54%     82.21% |         371     17.79%    100.00% (Unspecified)
system.caches.L2Cache_Controller.ISS.L1_GETS::total         2085                       (Unspecified)
system.caches.L2Cache_Controller.ISS.Mem_Data |      722558     12.51%     12.51% |      722664     12.51%     25.02% |      721341     12.49%     37.50% |      722102     12.50%     50.00% |      721946     12.50%     62.50% |      722362     12.50%     75.01% |      721845     12.50%     87.50% |      722072     12.50%    100.00% (Unspecified)
system.caches.L2Cache_Controller.ISS.Mem_Data::total      5776890                       (Unspecified)
system.caches.L2Cache_Controller.IS.L1_GET_INSTR |        2707     12.87%     12.87% |        2982     14.18%     27.05% |        2404     11.43%     38.48% |        1952      9.28%     47.76% |        2533     12.04%     59.80% |        2868     13.64%     73.43% |        2449     11.64%     85.08% |        3139     14.92%    100.00% (Unspecified)
system.caches.L2Cache_Controller.IS.L1_GET_INSTR::total        21034                       (Unspecified)
system.caches.L2Cache_Controller.IS.L1_GETS |         900     29.99%     29.99% |         497     16.56%     46.55% |         466     15.53%     62.08% |         317     10.56%     72.64% |         283      9.43%     82.07% |         346     11.53%     93.60% |          42      1.40%     95.00% |         150      5.00%    100.00% (Unspecified)
system.caches.L2Cache_Controller.IS.L1_GETS::total         3001                       (Unspecified)
system.caches.L2Cache_Controller.IS.Mem_Data |        1946     14.50%     14.50% |        1814     13.51%     28.01% |        1748     13.02%     41.03% |        1316      9.80%     50.83% |        1633     12.16%     62.99% |        1535     11.43%     74.43% |        1460     10.88%     85.30% |        1973     14.70%    100.00% (Unspecified)
system.caches.L2Cache_Controller.IS.Mem_Data::total        13425                       (Unspecified)
system.caches.L2Cache_Controller.IM.Mem_Data |        3425     13.62%     13.62% |        2985     11.87%     25.49% |        2191      8.71%     34.20% |        2848     11.33%     45.53% |        3057     12.16%     57.69% |        4081     16.23%     73.92% |        3098     12.32%     86.24% |        3461     13.76%    100.00% (Unspecified)
system.caches.L2Cache_Controller.IM.Mem_Data::total        25146                       (Unspecified)
system.caches.L2Cache_Controller.SS_MB.L1_GETS |           0      0.00%      0.00% |           0      0.00%      0.00% |           0      0.00%      0.00% |           0      0.00%      0.00% |           0      0.00%      0.00% |           0      0.00%      0.00% |         394     92.92%     92.92% |          30      7.08%    100.00% (Unspecified)
system.caches.L2Cache_Controller.SS_MB.L1_GETS::total          424                       (Unspecified)
system.caches.L2Cache_Controller.SS_MB.Exclusive_Unblock |        1441     12.49%     12.49% |        1402     12.15%     24.63% |        1414     12.25%     36.89% |        1409     12.21%     49.09% |        1424     12.34%     61.43% |        1382     11.97%     73.41% |        1672     14.49%     87.90% |        1397     12.10%    100.00% (Unspecified)
system.caches.L2Cache_Controller.SS_MB.Exclusive_Unblock::total        11541                       (Unspecified)
system.caches.L2Cache_Controller.MT_MB.L1_GETS |          47     36.15%     36.15% |          10      7.69%     43.85% |          25     19.23%     63.08% |          10      7.69%     70.77% |           6      4.62%     75.38% |           9      6.92%     82.31% |           9      6.92%     89.23% |          14     10.77%    100.00% (Unspecified)
system.caches.L2Cache_Controller.MT_MB.L1_GETS::total          130                       (Unspecified)
system.caches.L2Cache_Controller.MT_MB.L1_GETX |          21     87.50%     87.50% |           3     12.50%    100.00% |           0      0.00%    100.00% |           0      0.00%    100.00% |           0      0.00%    100.00% |           0      0.00%    100.00% |           0      0.00%    100.00% |           0      0.00%    100.00% (Unspecified)
system.caches.L2Cache_Controller.MT_MB.L1_GETX::total           24                       (Unspecified)
system.caches.L2Cache_Controller.MT_MB.Exclusive_Unblock |      735051     12.52%     12.52% |      734609     12.51%     25.02% |      732132     12.47%     37.49% |      733669     12.49%     49.98% |      733827     12.49%     62.47% |      735539     12.52%     75.00% |      733922     12.50%     87.49% |      734475     12.51%    100.00% (Unspecified)
system.caches.L2Cache_Controller.MT_MB.Exclusive_Unblock::total      5873224                       (Unspecified)
system.caches.L2Cache_Controller.MT_IIB.L1_GET_INSTR |           0      0.00%      0.00% |           0      0.00%      0.00% |           2     25.00%     25.00% |           0      0.00%     25.00% |           0      0.00%     25.00% |           0      0.00%     25.00% |           0      0.00%     25.00% |           6     75.00%    100.00% (Unspecified)
system.caches.L2Cache_Controller.MT_IIB.L1_GET_INSTR::total            8                       (Unspecified)
system.caches.L2Cache_Controller.MT_IIB.L1_GETS |         151     22.11%     22.11% |          83     12.15%     34.26% |          34      4.98%     39.24% |           8      1.17%     40.41% |          17      2.49%     42.90% |          12      1.76%     44.66% |         336     49.19%     93.85% |          42      6.15%    100.00% (Unspecified)
system.caches.L2Cache_Controller.MT_IIB.L1_GETS::total          683                       (Unspecified)
system.caches.L2Cache_Controller.MT_IIB.WB_Data |        1087     12.85%     12.85% |        1041     12.31%     25.16% |        1010     11.94%     37.10% |        1003     11.86%     48.96% |        1055     12.47%     61.43% |         979     11.57%     73.01% |        1274     15.06%     88.07% |        1009     11.93%    100.00% (Unspecified)
system.caches.L2Cache_Controller.MT_IIB.WB_Data::total         8458                       (Unspecified)
system.caches.L2Cache_Controller.MT_IIB.WB_Data_clean |       10663     12.82%     12.82% |       10464     12.58%     25.40% |       10338     12.43%     37.83% |       10422     12.53%     50.37% |       10248     12.32%     62.69% |       10385     12.49%     75.17% |       10238     12.31%     87.49% |       10408     12.51%    100.00% (Unspecified)
system.caches.L2Cache_Controller.MT_IIB.WB_Data_clean::total        83166                       (Unspecified)
system.caches.L2Cache_Controller.MT_IIB.Unblock |           8     20.00%     20.00% |           4     10.00%     30.00% |           5     12.50%     42.50% |           2      5.00%     47.50% |           5     12.50%     60.00% |           8     20.00%     80.00% |           5     12.50%     92.50% |           3      7.50%    100.00% (Unspecified)
system.caches.L2Cache_Controller.MT_IIB.Unblock::total           40                       (Unspecified)
system.caches.L2Cache_Controller.MT_IB.WB_Data |           6     23.08%     23.08% |           3     11.54%     34.62% |           5     19.23%     53.85% |           0      0.00%     53.85% |           3     11.54%     65.38% |           4     15.38%     80.77% |           4     15.38%     96.15% |           1      3.85%    100.00% (Unspecified)
system.caches.L2Cache_Controller.MT_IB.WB_Data::total           26                       (Unspecified)
system.caches.L2Cache_Controller.MT_IB.WB_Data_clean |           2     14.29%     14.29% |           1      7.14%     21.43% |           0      0.00%     21.43% |           2     14.29%     35.71% |           2     14.29%     50.00% |           4     28.57%     78.57% |           1      7.14%     85.71% |           2     14.29%    100.00% (Unspecified)
system.caches.L2Cache_Controller.MT_IB.WB_Data_clean::total           14                       (Unspecified)
system.caches.L2Cache_Controller.MT_SB.L1_GET_INSTR |           0      0.00%      0.00% |           0      0.00%      0.00% |           1    100.00%    100.00% |           0      0.00%    100.00% |           0      0.00%    100.00% |           0      0.00%    100.00% |           0      0.00%    100.00% |           0      0.00%    100.00% (Unspecified)
system.caches.L2Cache_Controller.MT_SB.L1_GET_INSTR::total            1                       (Unspecified)
system.caches.L2Cache_Controller.MT_SB.L1_GETS |          21     27.27%     27.27% |          40     51.95%     79.22% |           2      2.60%     81.82% |           1      1.30%     83.12% |           0      0.00%     83.12% |           2      2.60%     85.71% |           7      9.09%     94.81% |           4      5.19%    100.00% (Unspecified)
system.caches.L2Cache_Controller.MT_SB.L1_GETS::total           77                       (Unspecified)
system.caches.L2Cache_Controller.MT_SB.L1_UPGRADE |           0      0.00%      0.00% |           0      0.00%      0.00% |           0      0.00%      0.00% |           0      0.00%      0.00% |           0      0.00%      0.00% |           0      0.00%      0.00% |          85    100.00%    100.00% |           0      0.00%    100.00% (Unspecified)
system.caches.L2Cache_Controller.MT_SB.L1_UPGRADE::total           85                       (Unspecified)
system.caches.L2Cache_Controller.MT_SB.Unblock |       11750     12.82%     12.82% |       11505     12.56%     25.38% |       11348     12.39%     37.77% |       11425     12.47%     50.24% |       11303     12.34%     62.57% |       11364     12.40%     74.97% |       11512     12.56%     87.54% |       11417     12.46%    100.00% (Unspecified)
system.caches.L2Cache_Controller.MT_SB.Unblock::total        91624                       (Unspecified)
system.caches.RequestType.LD.latency_hist_seqr::bucket_size         1024                       (Unspecified)
system.caches.RequestType.LD.latency_hist_seqr::max_bucket        10239                       (Unspecified)
system.caches.RequestType.LD.latency_hist_seqr::samples     66413375                       (Unspecified)
system.caches.RequestType.LD.latency_hist_seqr::mean    45.088477                       (Unspecified)
system.caches.RequestType.LD.latency_hist_seqr::gmean     4.672315                       (Unspecified)
system.caches.RequestType.LD.latency_hist_seqr::stdev   140.369403                       (Unspecified)
system.caches.RequestType.LD.latency_hist_seqr |    66326164     99.87%     99.87% |       30299      0.05%     99.91% |       56356      0.08%    100.00% |         505      0.00%    100.00% |          45      0.00%    100.00% |           6      0.00%    100.00% |           0      0.00%    100.00% |           0      0.00%    100.00% |           0      0.00%    100.00% |           0      0.00%    100.00% (Unspecified)
system.caches.RequestType.LD.latency_hist_seqr::total     66413375                       (Unspecified)
system.caches.RequestType.LD.hit_latency_hist_seqr::bucket_size            1                       (Unspecified)
system.caches.RequestType.LD.hit_latency_hist_seqr::max_bucket            9                       (Unspecified)
system.caches.RequestType.LD.hit_latency_hist_seqr::samples     36169324                       (Unspecified)
system.caches.RequestType.LD.hit_latency_hist_seqr::mean     1.006326                       (Unspecified)
system.caches.RequestType.LD.hit_latency_hist_seqr::gmean     1.004394                       (Unspecified)
system.caches.RequestType.LD.hit_latency_hist_seqr::stdev     0.079284                       (Unspecified)
system.caches.RequestType.LD.hit_latency_hist_seqr |           0      0.00%      0.00% |    35940519     99.37%     99.37% |      228805      0.63%    100.00% |           0      0.00%    100.00% |           0      0.00%    100.00% |           0      0.00%    100.00% |           0      0.00%    100.00% |           0      0.00%    100.00% |           0      0.00%    100.00% |           0      0.00%    100.00% (Unspecified)
system.caches.RequestType.LD.hit_latency_hist_seqr::total     36169324                       (Unspecified)
system.caches.RequestType.LD.miss_latency_hist_seqr::bucket_size         1024                       (Unspecified)
system.caches.RequestType.LD.miss_latency_hist_seqr::max_bucket        10239                       (Unspecified)
system.caches.RequestType.LD.miss_latency_hist_seqr::samples     30244051                       (Unspecified)
system.caches.RequestType.LD.miss_latency_hist_seqr::mean    97.806996                       (Unspecified)
system.caches.RequestType.LD.miss_latency_hist_seqr::gmean    29.373690                       (Unspecified)
system.caches.RequestType.LD.miss_latency_hist_seqr::stdev   195.356532                       (Unspecified)
system.caches.RequestType.LD.miss_latency_hist_seqr |    30156840     99.71%     99.71% |       30299      0.10%     99.81% |       56356      0.19%    100.00% |         505      0.00%    100.00% |          45      0.00%    100.00% |           6      0.00%    100.00% |           0      0.00%    100.00% |           0      0.00%    100.00% |           0      0.00%    100.00% |           0      0.00%    100.00% (Unspecified)
system.caches.RequestType.LD.miss_latency_hist_seqr::total     30244051                       (Unspecified)
system.caches.RequestType.ST.latency_hist_seqr::bucket_size          512                       (Unspecified)
system.caches.RequestType.ST.latency_hist_seqr::max_bucket         5119                       (Unspecified)
system.caches.RequestType.ST.latency_hist_seqr::samples       720661                       (Unspecified)
system.caches.RequestType.ST.latency_hist_seqr::mean    14.745012                       (Unspecified)
system.caches.RequestType.ST.latency_hist_seqr::gmean     1.252304                       (Unspecified)
system.caches.RequestType.ST.latency_hist_seqr::stdev    92.756927                       (Unspecified)
system.caches.RequestType.ST.latency_hist_seqr |      716459     99.42%     99.42% |        3478      0.48%     99.90% |         272      0.04%     99.94% |         220      0.03%     99.97% |         192      0.03%     99.99% |          15      0.00%    100.00% |          25      0.00%    100.00% |           0      0.00%    100.00% |           0      0.00%    100.00% |           0      0.00%    100.00% (Unspecified)
system.caches.RequestType.ST.latency_hist_seqr::total       720661                       (Unspecified)
system.caches.RequestType.ST.hit_latency_hist_seqr::bucket_size           64                       (Unspecified)
system.caches.RequestType.ST.hit_latency_hist_seqr::max_bucket          639                       (Unspecified)
system.caches.RequestType.ST.hit_latency_hist_seqr::samples       688168                       (Unspecified)
system.caches.RequestType.ST.hit_latency_hist_seqr::mean     1.010906                       (Unspecified)
system.caches.RequestType.ST.hit_latency_hist_seqr::gmean     1.002504                       (Unspecified)
system.caches.RequestType.ST.hit_latency_hist_seqr::stdev     1.691131                       (Unspecified)
system.caches.RequestType.ST.hit_latency_hist_seqr |      688153    100.00%    100.00% |           1      0.00%    100.00% |           0      0.00%    100.00% |           2      0.00%    100.00% |           5      0.00%    100.00% |           3      0.00%    100.00% |           2      0.00%    100.00% |           0      0.00%    100.00% |           1      0.00%    100.00% |           1      0.00%    100.00% (Unspecified)
system.caches.RequestType.ST.hit_latency_hist_seqr::total       688168                       (Unspecified)
system.caches.RequestType.ST.miss_latency_hist_seqr::bucket_size          512                       (Unspecified)
system.caches.RequestType.ST.miss_latency_hist_seqr::max_bucket         5119                       (Unspecified)
system.caches.RequestType.ST.miss_latency_hist_seqr::samples        32493                       (Unspecified)
system.caches.RequestType.ST.miss_latency_hist_seqr::mean   305.619118                       (Unspecified)
system.caches.RequestType.ST.miss_latency_hist_seqr::gmean   139.347677                       (Unspecified)
system.caches.RequestType.ST.miss_latency_hist_seqr::stdev   319.631147                       (Unspecified)
system.caches.RequestType.ST.miss_latency_hist_seqr |       28293     87.07%     87.07% |        3476     10.70%     97.77% |         272      0.84%     98.61% |         220      0.68%     99.29% |         192      0.59%     99.88% |          15      0.05%     99.92% |          25      0.08%    100.00% |           0      0.00%    100.00% |           0      0.00%    100.00% |           0      0.00%    100.00% (Unspecified)
system.caches.RequestType.ST.miss_latency_hist_seqr::total        32493                       (Unspecified)
system.caches.RequestType.IFETCH.latency_hist_seqr::bucket_size          256                       (Unspecified)
system.caches.RequestType.IFETCH.latency_hist_seqr::max_bucket         2559                       (Unspecified)
system.caches.RequestType.IFETCH.latency_hist_seqr::samples     61722947                       (Unspecified)
[...]
system.o3Cpu7.iew.predictedNotTakenIncorrect         1027                       # Number of branches that were predicted not taken incorrectly (Count)
system.o3Cpu7.iew.branchMispredicts             16827                       # Number of branch mispredicts detected at execute (Count)
system.o3Cpu7.iew.instsToCommit              53448243                       # Cumulative count of insts sent to commit (Count)
system.o3Cpu7.iew.writebackCount             53443754                       # Cumulative count of insts written-back (Count)
system.o3Cpu7.iew.producerInst               42928782                       # Number of instructions producing a value (Count)
system.o3Cpu7.iew.consumerInst               55691191                       # Number of instructions consuming a value (Count)
system.o3Cpu7.iew.wbRate                     0.234294                       # Insts written-back per cycle ((Count/Cycle))
system.o3Cpu7.iew.wbFanout                   0.770836                       # Average fanout of values written-back ((Count/Count))
system.o3Cpu7.interrupts.clk_domain.clock         3200                       # Clock period in ticks (Tick)
system.o3Cpu7.lsq0.forwLoads                     4065                       # Number of loads that had data forwarded from stores (Count)
system.o3Cpu7.lsq0.squashedLoads                43480                       # Number of loads squashed (Count)
system.o3Cpu7.lsq0.ignoredResponses                 5                       # Number of memory responses ignored because the instruction is squashed (Count)
system.o3Cpu7.lsq0.memOrderViolation               45                       # Number of memory ordering violations (Count)
system.o3Cpu7.lsq0.squashedStores                1532                       # Number of stores squashed (Count)
system.o3Cpu7.lsq0.rescheduledLoads                44                       # Number of loads that were rescheduled (Count)
system.o3Cpu7.lsq0.blockedByCache                   0                       # Number of times an access to memory failed due to the cache being blocked (Count)
system.o3Cpu7.lsq0.loadToUse::samples        11593661                       # Distribution of cycle latency between the first time a load is issued and its completion (Unspecified)
system.o3Cpu7.lsq0.loadToUse::mean         152.927446                       # Distribution of cycle latency between the first time a load is issued and its completion (Unspecified)
system.o3Cpu7.lsq0.loadToUse::stdev        239.309108                       # Distribution of cycle latency between the first time a load is issued and its completion (Unspecified)
system.o3Cpu7.lsq0.loadToUse::0-9             4480944     38.65%     38.65% # Distribution of cycle latency between the first time a load is issued and its completion (Unspecified)
system.o3Cpu7.lsq0.loadToUse::10-19           2353461     20.30%     58.95% # Distribution of cycle latency between the first time a load is issued and its completion (Unspecified)
system.o3Cpu7.lsq0.loadToUse::20-29            567113      4.89%     63.84% # Distribution of cycle latency between the first time a load is issued and its completion (Unspecified)
system.o3Cpu7.lsq0.loadToUse::30-39            194488      1.68%     65.52% # Distribution of cycle latency between the first time a load is issued and its completion (Unspecified)
system.o3Cpu7.lsq0.loadToUse::40-49             11551      0.10%     65.62% # Distribution of cycle latency between the first time a load is issued and its completion (Unspecified)
system.o3Cpu7.lsq0.loadToUse::50-59              7139      0.06%     65.68% # Distribution of cycle latency between the first time a load is issued and its completion (Unspecified)
system.o3Cpu7.lsq0.loadToUse::60-69              6268      0.05%     65.73% # Distribution of cycle latency between the first time a load is issued and its completion (Unspecified)
system.o3Cpu7.lsq0.loadToUse::70-79              5061      0.04%     65.78% # Distribution of cycle latency between the first time a load is issued and its completion (Unspecified)
system.o3Cpu7.lsq0.loadToUse::80-89              3729      0.03%     65.81% # Distribution of cycle latency between the first time a load is issued and its completion (Unspecified)
system.o3Cpu7.lsq0.loadToUse::90-99              2542      0.02%     65.83% # Distribution of cycle latency between the first time a load is issued and its completion (Unspecified)
system.o3Cpu7.lsq0.loadToUse::100-109            2365      0.02%     65.85% # Distribution of cycle latency between the first time a load is issued and its completion (Unspecified)
system.o3Cpu7.lsq0.loadToUse::110-119            1851      0.02%     65.87% # Distribution of cycle latency between the first time a load is issued and its completion (Unspecified)
system.o3Cpu7.lsq0.loadToUse::120-129            1947      0.02%     65.88% # Distribution of cycle latency between the first time a load is issued and its completion (Unspecified)
system.o3Cpu7.lsq0.loadToUse::130-139            1853      0.02%     65.90% # Distribution of cycle latency between the first time a load is issued and its completion (Unspecified)
system.o3Cpu7.lsq0.loadToUse::140-149            1668      0.01%     65.92% # Distribution of cycle latency between the first time a load is issued and its completion (Unspecified)
system.o3Cpu7.lsq0.loadToUse::150-159            1683      0.01%     65.93% # Distribution of cycle latency between the first time a load is issued and its completion (Unspecified)
system.o3Cpu7.lsq0.loadToUse::160-169            1619      0.01%     65.94% # Distribution of cycle latency between the first time a load is issued and its completion (Unspecified)
system.o3Cpu7.lsq0.loadToUse::170-179            2124      0.02%     65.96% # Distribution of cycle latency between the first time a load is issued and its completion (Unspecified)
system.o3Cpu7.lsq0.loadToUse::180-189           11843      0.10%     66.06% # Distribution of cycle latency between the first time a load is issued and its completion (Unspecified)
system.o3Cpu7.lsq0.loadToUse::190-199           24711      0.21%     66.28% # Distribution of cycle latency between the first time a load is issued and its completion (Unspecified)
system.o3Cpu7.lsq0.loadToUse::200-209           35270      0.30%     66.58% # Distribution of cycle latency between the first time a load is issued and its completion (Unspecified)
system.o3Cpu7.lsq0.loadToUse::210-219           50332      0.43%     67.02% # Distribution of cycle latency between the first time a load is issued and its completion (Unspecified)
system.o3Cpu7.lsq0.loadToUse::220-229           37747      0.33%     67.34% # Distribution of cycle latency between the first time a load is issued and its completion (Unspecified)
system.o3Cpu7.lsq0.loadToUse::230-239           39693      0.34%     67.68% # Distribution of cycle latency between the first time a load is issued and its completion (Unspecified)
system.o3Cpu7.lsq0.loadToUse::240-249           40991      0.35%     68.04% # Distribution of cycle latency between the first time a load is issued and its completion (Unspecified)
system.o3Cpu7.lsq0.loadToUse::250-259           45620      0.39%     68.43% # Distribution of cycle latency between the first time a load is issued and its completion (Unspecified)
system.o3Cpu7.lsq0.loadToUse::260-269           45618      0.39%     68.82% # Distribution of cycle latency between the first time a load is issued and its completion (Unspecified)
system.o3Cpu7.lsq0.loadToUse::270-279           49958      0.43%     69.25% # Distribution of cycle latency between the first time a load is issued and its completion (Unspecified)
system.o3Cpu7.lsq0.loadToUse::280-289           53570      0.46%     69.72% # Distribution of cycle latency between the first time a load is issued and its completion (Unspecified)
system.o3Cpu7.lsq0.loadToUse::290-299           50674      0.44%     70.15% # Distribution of cycle latency between the first time a load is issued and its completion (Unspecified)
system.o3Cpu7.lsq0.loadToUse::overflows       3460228     29.85%    100.00% # Distribution of cycle latency between the first time a load is issued and its completion (Unspecified)
system.o3Cpu7.lsq0.loadToUse::min_value             2                       # Distribution of cycle latency between the first time a load is issued and its completion (Unspecified)
system.o3Cpu7.lsq0.loadToUse::max_value          5022                       # Distribution of cycle latency between the first time a load is issued and its completion (Unspecified)
system.o3Cpu7.lsq0.loadToUse::total          11593661                       # Distribution of cycle latency between the first time a load is issued and its completion (Unspecified)
system.o3Cpu7.mmu.dtb.rdAccesses             11617494                       # TLB accesses on read requests (Count)
system.o3Cpu7.mmu.dtb.wrAccesses                91632                       # TLB accesses on write requests (Count)
system.o3Cpu7.mmu.dtb.rdMisses                   3858                       # TLB misses on read requests (Count)
system.o3Cpu7.mmu.dtb.wrMisses                    821                       # TLB misses on write requests (Count)
system.o3Cpu7.mmu.dtb.walker.power_state.pwrStateResidencyTicks::UNDEFINED  47297841200                       # Cumulative time (in ticks) in various power states (Tick)
system.o3Cpu7.mmu.itb.rdAccesses                    0                       # TLB accesses on read requests (Count)
system.o3Cpu7.mmu.itb.wrAccesses              7598044                       # TLB accesses on write requests (Count)
system.o3Cpu7.mmu.itb.rdMisses                      0                       # TLB misses on read requests (Count)
system.o3Cpu7.mmu.itb.wrMisses                    110                       # TLB misses on write requests (Count)
system.o3Cpu7.mmu.itb.walker.power_state.pwrStateResidencyTicks::UNDEFINED  47297841200                       # Cumulative time (in ticks) in various power states (Tick)
system.o3Cpu7.power_state.numTransitions            4                       # Number of power state transitions (Count)
system.o3Cpu7.power_state.ticksClkGated::samples            2                       # Distribution of time spent in the clock gated state (Tick)
system.o3Cpu7.power_state.ticksClkGated::mean    333147000                       # Distribution of time spent in the clock gated state (Tick)
system.o3Cpu7.power_state.ticksClkGated::stdev 267571185.899977                       # Distribution of time spent in the clock gated state (Tick)
system.o3Cpu7.power_state.ticksClkGated::1000-5e+10            2    100.00%    100.00% # Distribution of time spent in the clock gated state (Tick)
system.o3Cpu7.power_state.ticksClkGated::min_value    143945600                       # Distribution of time spent in the clock gated state (Tick)
system.o3Cpu7.power_state.ticksClkGated::max_value    522348400                       # Distribution of time spent in the clock gated state (Tick)
system.o3Cpu7.power_state.ticksClkGated::total            2                       # Distribution of time spent in the clock gated state (Tick)
system.o3Cpu7.power_state.pwrStateResidencyTicks::ON  10507399600                       # Cumulative time (in ticks) in various power states (Tick)
system.o3Cpu7.power_state.pwrStateResidencyTicks::CLK_GATED    666294000                       # Cumulative time (in ticks) in various power states (Tick)
system.o3Cpu7.power_state.pwrStateResidencyTicks::OFF  36124147600                       # Cumulative time (in ticks) in various power states (Tick)
system.o3Cpu7.rename.squashCycles               16903                       # Number of cycles rename is squashing (Cycle)
system.o3Cpu7.rename.idleCycles               5747482                       # Number of cycles rename is idle (Cycle)
system.o3Cpu7.rename.blockCycles             97263441                       # Number of cycles rename is blocking (Cycle)
system.o3Cpu7.rename.serializeStallCycles       282414                       # count of cycles rename stalled for serializing inst (Cycle)
system.o3Cpu7.rename.runCycles               14145592                       # Number of cycles rename is running (Cycle)
system.o3Cpu7.rename.unblockCycles          110309488                       # Number of cycles rename is unblocking (Cycle)
system.o3Cpu7.rename.renamedInsts            53617256                       # Number of instructions processed by rename (Count)
system.o3Cpu7.rename.ROBFullEvents            1387649                       # Number of times rename has blocked due to ROB full (Count)
system.o3Cpu7.rename.IQFullEvents             1790136                       # Number of times rename has blocked due to IQ full (Count)
system.o3Cpu7.rename.LQFullEvents           108511892                       # Number of times rename has blocked due to LQ full (Count)
system.o3Cpu7.rename.SQFullEvents              104869                       # Number of times rename has blocked due to SQ full (Count)
system.o3Cpu7.rename.fullRegistersEvents           11                       # Number of times there has been no free registers (Count)
system.o3Cpu7.rename.renamedOperands         92079985                       # Number of destination operands rename has renamed (Count)
system.o3Cpu7.rename.lookups                163245647                       # Number of register rename lookups that rename has made (Count)
system.o3Cpu7.rename.intLookups              53375305                       # Number of integer rename lookups (Count)
system.o3Cpu7.rename.fpLookups               22830979                       # Number of floating rename lookups (Count)
system.o3Cpu7.rename.committedMaps           91738603                       # Number of HB maps that are committed (Count)
system.o3Cpu7.rename.undoneMaps                341292                       # Number of HB maps that are undone due to squashing (Count)
system.o3Cpu7.rename.serializing                 1965                       # count of serializing insts renamed (Count)
system.o3Cpu7.rename.tempSerializing             1925                       # count of temporary serializing insts renamed (Count)
system.o3Cpu7.rename.skidInsts                6538324                       # count of insts added to the skid buffer (Count)
system.o3Cpu7.rob.reads                     269259332                       # The number of ROB reads (Count)
system.o3Cpu7.rob.writes                    107117610                       # The number of ROB writes (Count)
system.o3Cpu7.thread_0.numInsts              29013611                       # Number of Instructions committed (Count)
system.o3Cpu7.thread_0.numOps                53407316                       # Number of Ops committed (Count)
system.o3Cpu7.thread_0.numMemRefs                   0                       # Number of Memory References (Count)
system.pc.bad_addr.power_state.pwrStateResidencyTicks::UNDEFINED  47297841200                       # Cumulative time (in ticks) in various power states (Tick)
system.pc.com_1.power_state.pwrStateResidencyTicks::UNDEFINED  47297841200                       # Cumulative time (in ticks) in various power states (Tick)
system.pc.default_bus.power_state.pwrStateResidencyTicks::UNDEFINED  47297841200                       # Cumulative time (in ticks) in various power states (Tick)
system.pc.empty_isa.power_state.pwrStateResidencyTicks::UNDEFINED  47297841200                       # Cumulative time (in ticks) in various power states (Tick)
system.pc.fake_com_2.power_state.pwrStateResidencyTicks::UNDEFINED  47297841200                       # Cumulative time (in ticks) in various power states (Tick)
system.pc.fake_com_3.power_state.pwrStateResidencyTicks::UNDEFINED  47297841200                       # Cumulative time (in ticks) in various power states (Tick)
system.pc.fake_com_4.power_state.pwrStateResidencyTicks::UNDEFINED  47297841200                       # Cumulative time (in ticks) in various power states (Tick)
system.pc.fake_floppy.power_state.pwrStateResidencyTicks::UNDEFINED  47297841200                       # Cumulative time (in ticks) in various power states (Tick)
system.pc.pci_host.power_state.pwrStateResidencyTicks::UNDEFINED  47297841200                       # Cumulative time (in ticks) in various power states (Tick)
system.pc.south_bridge.cmos.power_state.pwrStateResidencyTicks::UNDEFINED  47297841200                       # Cumulative time (in ticks) in various power states (Tick)
system.pc.south_bridge.dma1.power_state.pwrStateResidencyTicks::UNDEFINED  47297841200                       # Cumulative time (in ticks) in various power states (Tick)
system.pc.south_bridge.ide.disks0.IdeDisk.dmaReadFullPages            0                       # Number of full page size DMA reads (not PRD). (Count)
system.pc.south_bridge.ide.disks0.IdeDisk.dmaReadBytes            0                       # Number of bytes transfered via DMA reads (not PRD). (Byte)
system.pc.south_bridge.ide.disks0.IdeDisk.dmaReadTxs            0                       # Number of DMA read transactions (not PRD). (Count)
system.pc.south_bridge.ide.disks0.IdeDisk.dmaWriteFullPages            0                       # Number of full page size DMA writes. (Count)
system.pc.south_bridge.ide.disks0.IdeDisk.dmaWriteBytes            0                       # Number of bytes transfered via DMA writes. (Byte)
system.pc.south_bridge.ide.disks0.IdeDisk.dmaWriteTxs            0                       # Number of DMA write transactions. (Count)
system.pc.south_bridge.ide.disks1.IdeDisk.dmaReadFullPages            0                       # Number of full page size DMA reads (not PRD). (Count)
system.pc.south_bridge.ide.disks1.IdeDisk.dmaReadBytes            0                       # Number of bytes transfered via DMA reads (not PRD). (Byte)
system.pc.south_bridge.ide.disks1.IdeDisk.dmaReadTxs            0                       # Number of DMA read transactions (not PRD). (Count)
system.pc.south_bridge.ide.disks1.IdeDisk.dmaWriteFullPages            0                       # Number of full page size DMA writes. (Count)
system.pc.south_bridge.ide.disks1.IdeDisk.dmaWriteBytes            0                       # Number of bytes transfered via DMA writes. (Byte)
system.pc.south_bridge.ide.disks1.IdeDisk.dmaWriteTxs            0                       # Number of DMA write transactions. (Count)
system.pc.south_bridge.ide.power_state.pwrStateResidencyTicks::UNDEFINED  47297841200                       # Cumulative time (in ticks) in various power states (Tick)
system.pc.south_bridge.io_apic.power_state.pwrStateResidencyTicks::UNDEFINED  47297841200                       # Cumulative time (in ticks) in various power states (Tick)
system.pc.south_bridge.keyboard.power_state.pwrStateResidencyTicks::UNDEFINED  47297841200                       # Cumulative time (in ticks) in various power states (Tick)
system.pc.south_bridge.pic1.power_state.pwrStateResidencyTicks::UNDEFINED  47297841200                       # Cumulative time (in ticks) in various power states (Tick)
system.pc.south_bridge.pic2.power_state.pwrStateResidencyTicks::UNDEFINED  47297841200                       # Cumulative time (in ticks) in various power states (Tick)
system.pc.south_bridge.pit.power_state.pwrStateResidencyTicks::UNDEFINED  47297841200                       # Cumulative time (in ticks) in various power states (Tick)
system.pc.south_bridge.speaker.power_state.pwrStateResidencyTicks::UNDEFINED  47297841200                       # Cumulative time (in ticks) in various power states (Tick)
system.workload.inst.arm                            0                       # number of arm instructions executed (Count)
system.workload.inst.quiesce                        0                       # number of quiesce instructions executed (Count)

---------- End Simulation Statistics   ----------
