
---------- Begin Simulation Statistics ----------
simSeconds                                   0.048511                       # Number of seconds simulated (Second)
simTicks                                  48511014600                       # Number of ticks simulated (Tick)
finalTick                                95851598976000                       # Number of ticks from beginning of simulation (restored from checkpoints and never reset) (Tick)
simFreq                                  1000000000000                       # The number of ticks per simulated second ((Tick/Second))
hostSeconds                                   6768.02                       # Real time elapsed on the host (Second)
hostTickRate                                  7167678                       # The number of ticks simulated per host second (ticks/s) ((Tick/Second))
hostMemory                                   19910708                       # Number of bytes of host memory used (Byte)
simInsts                                    388608152                       # Number of instructions simulated (Count)
simOps                                      680461994                       # Number of ops (including micro ops) simulated (Count)
hostInstRate                                    57418                       # Simulator instruction rate (inst/s) ((Count/Second))
hostOpRate                                     100541                       # Simulator op (including micro ops) rate (op/s) ((Count/Second))
system.caches.delayHistogram::bucket_size            8                       # delay histogram for all message (Unspecified)
system.caches.delayHistogram::max_bucket           79                       # delay histogram for all message (Unspecified)
system.caches.delayHistogram::samples        21713004                       # delay histogram for all message (Unspecified)
system.caches.delayHistogram::mean           0.018025                       # delay histogram for all message (Unspecified)
system.caches.delayHistogram::stdev          0.428484                       # delay histogram for all message (Unspecified)
system.caches.delayHistogram             |    21687802     99.88%     99.88% |       24005      0.11%     99.99% |         583      0.00%    100.00% |         165      0.00%    100.00% |          84      0.00%    100.00% |          62      0.00%    100.00% |          84      0.00%    100.00% |         140      0.00%    100.00% |          79      0.00%    100.00% |           0      0.00%    100.00% # delay histogram for all message (Unspecified)
system.caches.delayHistogram::total          21713004                       # delay histogram for all message (Unspecified)
system.caches.m_outstandReqHistSeqr::bucket_size            2                       (Unspecified)
system.caches.m_outstandReqHistSeqr::max_bucket           19                       (Unspecified)
system.caches.m_outstandReqHistSeqr::samples    242934519                       (Unspecified)
system.caches.m_outstandReqHistSeqr::mean     1.283273                       (Unspecified)
system.caches.m_outstandReqHistSeqr::gmean     1.207477                       (Unspecified)
system.caches.m_outstandReqHistSeqr::stdev     0.509593                       (Unspecified)
system.caches.m_outstandReqHistSeqr      |   180592002     74.34%     74.34% |    62223813     25.61%     99.95% |       89003      0.04%     99.99% |       26443      0.01%    100.00% |        2717      0.00%    100.00% |         538      0.00%    100.00% |           3      0.00%    100.00% |           0      0.00%    100.00% |           0      0.00%    100.00% |           0      0.00%    100.00% (Unspecified)
system.caches.m_outstandReqHistSeqr::total    242934519                       (Unspecified)
system.caches.m_latencyHistSeqr::bucket_size         1024                       (Unspecified)
system.caches.m_latencyHistSeqr::max_bucket        10239                       (Unspecified)
system.caches.m_latencyHistSeqr::samples    242937705                       (Unspecified)
system.caches.m_latencyHistSeqr::mean        7.825700                       (Unspecified)
system.caches.m_latencyHistSeqr::gmean       1.083121                       (Unspecified)
system.caches.m_latencyHistSeqr::stdev      65.642737                       (Unspecified)
system.caches.m_latencyHistSeqr          |   242820660     99.95%     99.95% |      114642      0.05%    100.00% |        2376      0.00%    100.00% |          17      0.00%    100.00% |           9      0.00%    100.00% |           1      0.00%    100.00% |           0      0.00%    100.00% |           0      0.00%    100.00% |           0      0.00%    100.00% |           0      0.00%    100.00% (Unspecified)
system.caches.m_latencyHistSeqr::total      242937705                       (Unspecified)
system.caches.m_hitLatencyHistSeqr::bucket_size          512                       (Unspecified)
system.caches.m_hitLatencyHistSeqr::max_bucket         5119                       (Unspecified)
system.caches.m_hitLatencyHistSeqr::samples    239783540                       (Unspecified)
system.caches.m_hitLatencyHistSeqr::mean     1.000604                       (Unspecified)
system.caches.m_hitLatencyHistSeqr::gmean     1.000018                       (Unspecified)
system.caches.m_hitLatencyHistSeqr::stdev     0.739581                       (Unspecified)
system.caches.m_hitLatencyHistSeqr       |   239783415    100.00%    100.00% |         111      0.00%    100.00% |           1      0.00%    100.00% |           8      0.00%    100.00% |           3      0.00%    100.00% |           1      0.00%    100.00% |           1      0.00%    100.00% |           0      0.00%    100.00% |           0      0.00%    100.00% |           0      0.00%    100.00% (Unspecified)
system.caches.m_hitLatencyHistSeqr::total    239783540                       (Unspecified)
system.caches.m_missLatencyHistSeqr::bucket_size         1024                       (Unspecified)
system.caches.m_missLatencyHistSeqr::max_bucket        10239                       (Unspecified)
system.caches.m_missLatencyHistSeqr::samples      3154165                       (Unspecified)
system.caches.m_missLatencyHistSeqr::mean   526.677968                       (Unspecified)
system.caches.m_missLatencyHistSeqr::gmean   467.998117                       (Unspecified)
system.caches.m_missLatencyHistSeqr::stdev   243.087806                       (Unspecified)
system.caches.m_missLatencyHistSeqr      |     3037134     96.29%     96.29% |      114633      3.63%     99.92% |        2372      0.08%    100.00% |          16      0.00%    100.00% |           9      0.00%    100.00% |           1      0.00%    100.00% |           0      0.00%    100.00% |           0      0.00%    100.00% |           0      0.00%    100.00% |           0      0.00%    100.00% (Unspecified)
system.caches.m_missLatencyHistSeqr::total      3154165                       (Unspecified)
system.caches.delayVCHist.vnet_0::bucket_size            8                       # delay histogram for vnet_0 (Unspecified)
system.caches.delayVCHist.vnet_0::max_bucket           79                       # delay histogram for vnet_0 (Unspecified)
system.caches.delayVCHist.vnet_0::samples      9262952                       # delay histogram for vnet_0 (Unspecified)
system.caches.delayVCHist.vnet_0::mean       0.023402                       # delay histogram for vnet_0 (Unspecified)
system.caches.delayVCHist.vnet_0::stdev      0.549527                       # delay histogram for vnet_0 (Unspecified)
system.caches.delayVCHist.vnet_0         |     9241967     99.77%     99.77% |       20298      0.22%     99.99% |         190      0.00%     99.99% |          73      0.00%    100.00% |          60      0.00%    100.00% |          61      0.00%    100.00% |          84      0.00%    100.00% |         140      0.00%    100.00% |          79      0.00%    100.00% |           0      0.00%    100.00% # delay histogram for vnet_0 (Unspecified)
system.caches.delayVCHist.vnet_0::total       9262952                       # delay histogram for vnet_0 (Unspecified)
system.caches.delayVCHist.vnet_1::bucket_size            8                       # delay histogram for vnet_1 (Unspecified)
system.caches.delayVCHist.vnet_1::max_bucket           79                       # delay histogram for vnet_1 (Unspecified)
system.caches.delayVCHist.vnet_1::samples     12397146                       # delay histogram for vnet_1 (Unspecified)
system.caches.delayVCHist.vnet_1::mean       0.014083                       # delay histogram for vnet_1 (Unspecified)
system.caches.delayVCHist.vnet_1::stdev      0.309655                       # delay histogram for vnet_1 (Unspecified)
system.caches.delayVCHist.vnet_1         |    12392929     99.97%     99.97% |        3707      0.03%    100.00% |         393      0.00%    100.00% |          92      0.00%    100.00% |          24      0.00%    100.00% |           1      0.00%    100.00% |           0      0.00%    100.00% |           0      0.00%    100.00% |           0      0.00%    100.00% |           0      0.00%    100.00% # delay histogram for vnet_1 (Unspecified)
system.caches.delayVCHist.vnet_1::total      12397146                       # delay histogram for vnet_1 (Unspecified)
system.caches.delayVCHist.vnet_2::bucket_size            1                       # delay histogram for vnet_2 (Unspecified)
system.caches.delayVCHist.vnet_2::max_bucket            9                       # delay histogram for vnet_2 (Unspecified)
system.caches.delayVCHist.vnet_2::samples        52906                       # delay histogram for vnet_2 (Unspecified)
system.caches.delayVCHist.vnet_2::mean       0.000416                       # delay histogram for vnet_2 (Unspecified)
system.caches.delayVCHist.vnet_2::stdev      0.033674                       # delay histogram for vnet_2 (Unspecified)
system.caches.delayVCHist.vnet_2         |       52897     99.98%     99.98% |           0      0.00%     99.98% |           7      0.01%    100.00% |           0      0.00%    100.00% |           2      0.00%    100.00% |           0      0.00%    100.00% |           0      0.00%    100.00% |           0      0.00%    100.00% |           0      0.00%    100.00% |           0      0.00%    100.00% # delay histogram for vnet_2 (Unspecified)
system.caches.delayVCHist.vnet_2::total         52906                       # delay histogram for vnet_2 (Unspecified)
system.caches.L1Cache_Controller.Load    |     6087082     12.49%     12.49% |     6092053     12.50%     24.99% |     6095293     12.50%     37.49% |     6096538     12.51%     50.00% |     6096802     12.51%     62.50% |     6097477     12.51%     75.01% |     6085747     12.48%     87.50% |     6094259     12.50%    100.00% (Unspecified)
system.caches.L1Cache_Controller.Load::total     48745251                       (Unspecified)
system.caches.L1Cache_Controller.Ifetch  |    12120498     12.47%     12.47% |    12147248     12.50%     24.98% |    12150440     12.51%     37.48% |    12151941     12.51%     49.99% |    12153627     12.51%     62.50% |    12155580     12.51%     75.01% |    12131493     12.49%     87.50% |    12148748     12.50%    100.00% (Unspecified)
system.caches.L1Cache_Controller.Ifetch::total     97159575                       (Unspecified)
system.caches.L1Cache_Controller.Store   |    12108389     12.48%     12.48% |    12130426     12.50%     24.98% |    12134591     12.51%     37.49% |    12135340     12.51%     49.99% |    12137552     12.51%     62.50% |    12139294     12.51%     75.01% |    12114905     12.49%     87.50% |    12132387     12.50%    100.00% (Unspecified)
system.caches.L1Cache_Controller.Store::total     97032884                       (Unspecified)
system.caches.L1Cache_Controller.Inv     |        7338     13.93%     13.93% |        6435     12.22%     26.15% |        6627     12.58%     38.74% |        6247     11.86%     50.60% |        6228     11.83%     62.42% |        6510     12.36%     74.78% |        6890     13.08%     87.87% |        6390     12.13%    100.00% (Unspecified)
system.caches.L1Cache_Controller.Inv::total        52665                       (Unspecified)
system.caches.L1Cache_Controller.L1_Replacement |      390015     12.55%     12.55% |      387860     12.48%     25.04% |      388056     12.49%     37.53% |      388389     12.50%     50.03% |      388340     12.50%     62.53% |      388325     12.50%     75.03% |      387594     12.48%     87.50% |      388270     12.50%    100.00% (Unspecified)
system.caches.L1Cache_Controller.L1_Replacement::total      3106849                       (Unspecified)
system.caches.L1Cache_Controller.Fwd_GETX |           0      0.00%      0.00% |           2    100.00%    100.00% |           0      0.00%    100.00% |           0      0.00%    100.00% |           0      0.00%    100.00% |           0      0.00%    100.00% |           0      0.00%    100.00% |           0      0.00%    100.00% (Unspecified)
system.caches.L1Cache_Controller.Fwd_GETX::total            2                       (Unspecified)
system.caches.L1Cache_Controller.Fwd_GETS |         209     87.45%     87.45% |          21      8.79%     96.23% |           1      0.42%     96.65% |           2      0.84%     97.49% |           3      1.26%     98.74% |           2      0.84%     99.58% |           1      0.42%    100.00% |           0      0.00%    100.00% (Unspecified)
system.caches.L1Cache_Controller.Fwd_GETS::total          239                       (Unspecified)
system.caches.L1Cache_Controller.Data    |         141    100.00%    100.00% |           0      0.00%    100.00% |           0      0.00%    100.00% |           0      0.00%    100.00% |           0      0.00%    100.00% |           0      0.00%    100.00% |           0      0.00%    100.00% |           0      0.00%    100.00% (Unspecified)
system.caches.L1Cache_Controller.Data::total          141                       (Unspecified)
system.caches.L1Cache_Controller.Data_Exclusive |      380321     12.48%     12.48% |      380921     12.50%     24.98% |      380940     12.50%     37.49% |      381139     12.51%     50.00% |      381216     12.51%     62.51% |      381121     12.51%     75.02% |      380361     12.48%     87.50% |      380913     12.50%    100.00% (Unspecified)
system.caches.L1Cache_Controller.Data_Exclusive::total      3046932                       (Unspecified)
system.caches.L1Cache_Controller.DataS_fromL1 |           2      0.84%      0.84% |           8      3.35%      4.18% |          26     10.88%     15.06% |           5      2.09%     17.15% |           0      0.00%     17.15% |         197     82.43%     99.58% |           0      0.00%     99.58% |           1      0.42%    100.00% (Unspecified)
system.caches.L1Cache_Controller.DataS_fromL1::total          239                       (Unspecified)
system.caches.L1Cache_Controller.Data_all_Acks |       15516     14.53%     14.53% |       12969     12.14%     26.67% |       13106     12.27%     38.94% |       12996     12.17%     51.11% |       12918     12.10%     63.21% |       12988     12.16%     75.37% |       13162     12.32%     87.69% |       13145     12.31%    100.00% (Unspecified)
system.caches.L1Cache_Controller.Data_all_Acks::total       106800                       (Unspecified)
system.caches.L1Cache_Controller.Ack     |        1206    100.00%    100.00% |           0      0.00%    100.00% |           0      0.00%    100.00% |           0      0.00%    100.00% |           0      0.00%    100.00% |           0      0.00%    100.00% |           0      0.00%    100.00% |           0      0.00%    100.00% (Unspecified)
system.caches.L1Cache_Controller.Ack::total         1206                       (Unspecified)
system.caches.L1Cache_Controller.Ack_all |         194    100.00%    100.00% |           0      0.00%    100.00% |           0      0.00%    100.00% |           0      0.00%    100.00% |           0      0.00%    100.00% |           0      0.00%    100.00% |           0      0.00%    100.00% |           0      0.00%    100.00% (Unspecified)
system.caches.L1Cache_Controller.Ack_all::total          194                       (Unspecified)
system.caches.L1Cache_Controller.WB_Ack  |      381871     12.61%     12.61% |      377919     12.48%     25.09% |      377884     12.48%     37.57% |      378318     12.49%     50.07% |      378442     12.50%     62.57% |      378058     12.49%     75.05% |      377293     12.46%     87.51% |      378030     12.49%    100.00% (Unspecified)
system.caches.L1Cache_Controller.WB_Ack::total      3027815                       (Unspecified)
system.caches.L1Cache_Controller.NP.Load |      383270     12.48%     12.48% |      383818     12.50%     24.97% |      384100     12.50%     37.48% |      384289     12.51%     49.99% |      384249     12.51%     62.50% |      384295     12.51%     75.01% |      383448     12.48%     87.49% |      384136     12.51%    100.00% (Unspecified)
system.caches.L1Cache_Controller.NP.Load::total      3071605                       (Unspecified)
system.caches.L1Cache_Controller.NP.Ifetch |        4816     20.07%     20.07% |        2763     11.51%     31.58% |        2720     11.33%     42.92% |        2725     11.36%     54.27% |        2730     11.38%     65.65% |        2725     11.36%     77.01% |        2760     11.50%     88.51% |        2758     11.49%    100.00% (Unspecified)
system.caches.L1Cache_Controller.NP.Ifetch::total        23997                       (Unspecified)
system.caches.L1Cache_Controller.NP.Store |        2050     17.54%     17.54% |        1330     11.38%     28.92% |        1276     10.92%     39.84% |        1418     12.13%     51.98% |        1406     12.03%     64.01% |        1349     11.54%     75.55% |        1433     12.26%     87.81% |        1424     12.19%    100.00% (Unspecified)
system.caches.L1Cache_Controller.NP.Store::total        11686                       (Unspecified)
system.caches.L1Cache_Controller.NP.Inv  |         553     33.45%     33.45% |         102      6.17%     39.62% |         246     14.88%     54.51% |         248     15.00%     69.51% |         154      9.32%     78.83% |         245     14.82%     93.65% |          53      3.21%     96.85% |          52      3.15%    100.00% (Unspecified)
system.caches.L1Cache_Controller.NP.Inv::total         1653                       (Unspecified)
system.caches.L1Cache_Controller.I.Load  |           1      0.10%      0.10% |         221     22.51%     22.61% |         159     16.19%     38.80% |          46      4.68%     43.48% |         102     10.39%     53.87% |         200     20.37%     74.24% |         199     20.26%     94.50% |          54      5.50%    100.00% (Unspecified)
system.caches.L1Cache_Controller.I.Load::total          982                       (Unspecified)
system.caches.L1Cache_Controller.I.Ifetch |        3145     13.22%     13.22% |        2946     12.38%     25.60% |        2950     12.40%     38.00% |        2940     12.36%     50.36% |        2938     12.35%     62.71% |        2949     12.40%     75.11% |        2967     12.47%     87.58% |        2955     12.42%    100.00% (Unspecified)
system.caches.L1Cache_Controller.I.Ifetch::total        23790                       (Unspecified)
system.caches.L1Cache_Controller.I.Store |        2699     12.24%     12.24% |        2820     12.79%     25.02% |        2868     13.00%     38.02% |        2723     12.35%     50.37% |        2710     12.29%     62.66% |        2788     12.64%     75.30% |        2717     12.32%     87.61% |        2732     12.39%    100.00% (Unspecified)
system.caches.L1Cache_Controller.I.Store::total        22057                       (Unspecified)
system.caches.L1Cache_Controller.I.L1_Replacement |         755      2.43%      2.43% |        4298     13.85%     16.28% |        4198     13.53%     29.81% |        4224     13.61%     43.42% |        4200     13.53%     56.95% |        4240     13.66%     70.61% |        4585     14.77%     85.39% |        4535     14.61%    100.00% (Unspecified)
system.caches.L1Cache_Controller.I.L1_Replacement::total        31035                       (Unspecified)
system.caches.L1Cache_Controller.S.Load  |        9565     10.71%     10.71% |        9773     10.95%     21.66% |       11652     13.05%     34.71% |       12039     13.48%     48.19% |       11756     13.17%     61.36% |       11426     12.80%     74.15% |       11656     13.05%     87.21% |       11423     12.79%    100.00% (Unspecified)
system.caches.L1Cache_Controller.S.Load::total        89290                       (Unspecified)
system.caches.L1Cache_Controller.S.Ifetch |    12112537     12.47%     12.47% |    12141539     12.50%     24.98% |    12144770     12.51%     37.48% |    12146276     12.51%     49.99% |    12147959     12.51%     62.50% |    12149906     12.51%     75.01% |    12125766     12.49%     87.50% |    12143035     12.50%    100.00% (Unspecified)
system.caches.L1Cache_Controller.S.Ifetch::total     97111788                       (Unspecified)
system.caches.L1Cache_Controller.S.Store |          53    100.00%    100.00% |           0      0.00%    100.00% |           0      0.00%    100.00% |           0      0.00%    100.00% |           0      0.00%    100.00% |           0      0.00%    100.00% |           0      0.00%    100.00% |           0      0.00%    100.00% (Unspecified)
system.caches.L1Cache_Controller.S.Store::total           53                       (Unspecified)
system.caches.L1Cache_Controller.S.Inv   |        3575     14.55%     14.55% |        3047     12.40%     26.95% |        2907     11.83%     38.78% |        2910     11.84%     50.62% |        3003     12.22%     62.84% |        2923     11.89%     74.73% |        3110     12.66%     87.39% |        3099     12.61%    100.00% (Unspecified)
system.caches.L1Cache_Controller.S.Inv::total        24574                       (Unspecified)
system.caches.L1Cache_Controller.S.L1_Replacement |        7389     15.39%     15.39% |        5643     11.76%     27.15% |        5974     12.45%     39.60% |        5847     12.18%     51.78% |        5698     11.87%     63.65% |        6027     12.56%     76.21% |        5716     11.91%     88.11% |        5705     11.89%    100.00% (Unspecified)
system.caches.L1Cache_Controller.S.L1_Replacement::total        47999                       (Unspecified)
system.caches.L1Cache_Controller.E.Load  |     5672193     12.47%     12.47% |     5686737     12.50%     24.97% |     5688503     12.51%     37.48% |     5689032     12.51%     49.99% |     5689856     12.51%     62.50% |     5690757     12.51%     75.01% |     5679346     12.49%     87.50% |     5687492     12.50%    100.00% (Unspecified)
system.caches.L1Cache_Controller.E.Load::total     45483916                       (Unspecified)
system.caches.L1Cache_Controller.E.Store |         780     17.46%     17.46% |         528     11.82%     29.28% |         530     11.86%     41.15% |         527     11.80%     52.94% |         527     11.80%     64.74% |         516     11.55%     76.29% |         530     11.86%     88.16% |         529     11.84%    100.00% (Unspecified)
system.caches.L1Cache_Controller.E.Store::total         4467                       (Unspecified)
system.caches.L1Cache_Controller.E.Inv   |         305      8.06%      8.06% |         442     11.68%     19.75% |         575     15.20%     34.95% |         328      8.67%     43.62% |         333      8.80%     52.42% |         433     11.45%     63.86% |         916     24.21%     88.08% |         451     11.92%    100.00% (Unspecified)
system.caches.L1Cache_Controller.E.Inv::total         3783                       (Unspecified)
system.caches.L1Cache_Controller.E.L1_Replacement |      375358     12.47%     12.47% |      376179     12.50%     24.98% |      376168     12.50%     37.48% |      376469     12.51%     49.99% |      376592     12.52%     62.51% |      376372     12.51%     75.02% |      375522     12.48%     87.50% |      376230     12.50%    100.00% (Unspecified)
system.caches.L1Cache_Controller.E.L1_Replacement::total      3008890                       (Unspecified)
system.caches.L1Cache_Controller.E.Fwd_GETX |           0      0.00%      0.00% |           2    100.00%    100.00% |           0      0.00%    100.00% |           0      0.00%    100.00% |           0      0.00%    100.00% |           0      0.00%    100.00% |           0      0.00%    100.00% |           0      0.00%    100.00% (Unspecified)
system.caches.L1Cache_Controller.E.Fwd_GETX::total            2                       (Unspecified)
system.caches.L1Cache_Controller.E.Fwd_GETS |          12     28.57%     28.57% |          21     50.00%     78.57% |           1      2.38%     80.95% |           2      4.76%     85.71% |           3      7.14%     92.86% |           2      4.76%     97.62% |           1      2.38%    100.00% |           0      0.00%    100.00% (Unspecified)
system.caches.L1Cache_Controller.E.Fwd_GETS::total           42                       (Unspecified)
system.caches.L1Cache_Controller.M.Load  |       22053     22.17%     22.17% |       11504     11.57%     33.74% |       10879     10.94%     44.68% |       11132     11.19%     55.87% |       10839     10.90%     66.77% |       10799     10.86%     77.63% |       11098     11.16%     88.79% |       11154     11.21%    100.00% (Unspecified)
system.caches.L1Cache_Controller.M.Load::total        99458                       (Unspecified)
system.caches.L1Cache_Controller.M.Store |    12102807     12.48%     12.48% |    12125748     12.50%     24.98% |    12129917     12.51%     37.49% |    12130672     12.51%     49.99% |    12132909     12.51%     62.50% |    12134641     12.51%     75.01% |    12110225     12.49%     87.50% |    12127702     12.50%    100.00% (Unspecified)
system.caches.L1Cache_Controller.M.Store::total     96994621                       (Unspecified)
system.caches.L1Cache_Controller.M.Inv   |        2905     12.83%     12.83% |        2844     12.56%     25.39% |        2897     12.79%     38.18% |        2759     12.18%     50.36% |        2736     12.08%     62.45% |        2909     12.85%     75.29% |        2809     12.40%     87.70% |        2786     12.30%    100.00% (Unspecified)
system.caches.L1Cache_Controller.M.Inv::total        22645                       (Unspecified)
system.caches.L1Cache_Controller.M.L1_Replacement |        6513     34.41%     34.41% |        1740      9.19%     43.61% |        1716      9.07%     52.68% |        1849      9.77%     62.45% |        1850      9.78%     72.22% |        1686      8.91%     81.13% |        1771      9.36%     90.49% |        1800      9.51%    100.00% (Unspecified)
system.caches.L1Cache_Controller.M.L1_Replacement::total        18925                       (Unspecified)
system.caches.L1Cache_Controller.M.Fwd_GETS |         197    100.00%    100.00% |           0      0.00%    100.00% |           0      0.00%    100.00% |           0      0.00%    100.00% |           0      0.00%    100.00% |           0      0.00%    100.00% |           0      0.00%    100.00% |           0      0.00%    100.00% (Unspecified)
system.caches.L1Cache_Controller.M.Fwd_GETS::total          197                       (Unspecified)
system.caches.L1Cache_Controller.IS.Inv  |           0      0.00%      0.00% |           0      0.00%      0.00% |           2     20.00%     20.00% |           2     20.00%     40.00% |           2     20.00%     60.00% |           0      0.00%     60.00% |           2     20.00%     80.00% |           2     20.00%    100.00% (Unspecified)
system.caches.L1Cache_Controller.IS.Inv::total           10                       (Unspecified)
system.caches.L1Cache_Controller.IS.Data_Exclusive |      380321     12.48%     12.48% |      380921     12.50%     24.98% |      380940     12.50%     37.49% |      381139     12.51%     50.00% |      381216     12.51%     62.51% |      381121     12.51%     75.02% |      380361     12.48%     87.50% |      380913     12.50%    100.00% (Unspecified)
system.caches.L1Cache_Controller.IS.Data_Exclusive::total      3046932                       (Unspecified)
system.caches.L1Cache_Controller.IS.DataS_fromL1 |           2      0.84%      0.84% |           8      3.35%      4.18% |          26     10.88%     15.06% |           5      2.09%     17.15% |           0      0.00%     17.15% |         197     82.43%     99.58% |           0      0.00%     99.58% |           1      0.42%    100.00% (Unspecified)
system.caches.L1Cache_Controller.IS.DataS_fromL1::total          239                       (Unspecified)
system.caches.L1Cache_Controller.IS.Data_all_Acks |       10908     14.90%     14.90% |        8819     12.05%     26.95% |        8960     12.24%     39.20% |        8853     12.10%     51.29% |        8800     12.02%     63.32% |        8851     12.09%     75.41% |        9010     12.31%     87.72% |        8987     12.28%    100.00% (Unspecified)
system.caches.L1Cache_Controller.IS.Data_all_Acks::total        73188                       (Unspecified)
system.caches.L1Cache_Controller.IM.Data |         141    100.00%    100.00% |           0      0.00%    100.00% |           0      0.00%    100.00% |           0      0.00%    100.00% |           0      0.00%    100.00% |           0      0.00%    100.00% |           0      0.00%    100.00% |           0      0.00%    100.00% (Unspecified)
system.caches.L1Cache_Controller.IM.Data::total          141                       (Unspecified)
system.caches.L1Cache_Controller.IM.Data_all_Acks |        4608     13.71%     13.71% |        4150     12.35%     26.06% |        4144     12.33%     38.40% |        4141     12.32%     50.72% |        4116     12.25%     62.97% |        4137     12.31%     75.28% |        4150     12.35%     87.63% |        4156     12.37%    100.00% (Unspecified)
system.caches.L1Cache_Controller.IM.Data_all_Acks::total        33602                       (Unspecified)
system.caches.L1Cache_Controller.SM.Ack  |        1206    100.00%    100.00% |           0      0.00%    100.00% |           0      0.00%    100.00% |           0      0.00%    100.00% |           0      0.00%    100.00% |           0      0.00%    100.00% |           0      0.00%    100.00% |           0      0.00%    100.00% (Unspecified)
system.caches.L1Cache_Controller.SM.Ack::total         1206                       (Unspecified)
system.caches.L1Cache_Controller.SM.Ack_all |         194    100.00%    100.00% |           0      0.00%    100.00% |           0      0.00%    100.00% |           0      0.00%    100.00% |           0      0.00%    100.00% |           0      0.00%    100.00% |           0      0.00%    100.00% |           0      0.00%    100.00% (Unspecified)
system.caches.L1Cache_Controller.SM.Ack_all::total          194                       (Unspecified)
system.caches.L1Cache_Controller.IS_I.Data_all_Acks |           0      0.00%      0.00% |           0      0.00%      0.00% |           2     20.00%     20.00% |           2     20.00%     40.00% |           2     20.00%     60.00% |           0      0.00%     60.00% |           2     20.00%     80.00% |           2     20.00%    100.00% (Unspecified)
system.caches.L1Cache_Controller.IS_I.Data_all_Acks::total           10                       (Unspecified)
system.caches.L1Cache_Controller.M_I.WB_Ack |      381871     12.61%     12.61% |      377919     12.48%     25.09% |      377884     12.48%     37.57% |      378318     12.49%     50.07% |      378442     12.50%     62.57% |      378058     12.49%     75.05% |      377293     12.46%     87.51% |      378030     12.49%    100.00% (Unspecified)
system.caches.L1Cache_Controller.M_I.WB_Ack::total      3027815                       (Unspecified)
system.caches.Directory_Controller.Fetch |        4787      0.16%      0.16% |     3076347     99.84%    100.00% (Unspecified)
system.caches.Directory_Controller.Fetch::total      3081134                       (Unspecified)
system.caches.Directory_Controller.Data  |         471      0.47%      0.47% |       99418     99.53%    100.00% (Unspecified)
system.caches.Directory_Controller.Data::total        99889                       (Unspecified)
system.caches.Directory_Controller.Memory_Data |        4787      0.16%      0.16% |     3076342     99.84%    100.00% (Unspecified)
system.caches.Directory_Controller.Memory_Data::total      3081129                       (Unspecified)
system.caches.Directory_Controller.Memory_Ack |         471      0.47%      0.47% |       99417     99.53%    100.00% (Unspecified)
system.caches.Directory_Controller.Memory_Ack::total        99888                       (Unspecified)
system.caches.Directory_Controller.CleanReplacement |        4150      0.14%      0.14% |     2977095     99.86%    100.00% (Unspecified)
system.caches.Directory_Controller.CleanReplacement::total      2981245                       (Unspecified)
system.caches.Directory_Controller.I.Fetch |        4787      0.16%      0.16% |     3076347     99.84%    100.00% (Unspecified)
system.caches.Directory_Controller.I.Fetch::total      3081134                       (Unspecified)
system.caches.Directory_Controller.M.Data |         471      0.47%      0.47% |       99418     99.53%    100.00% (Unspecified)
system.caches.Directory_Controller.M.Data::total        99889                       (Unspecified)
system.caches.Directory_Controller.M.CleanReplacement |        4150      0.14%      0.14% |     2977095     99.86%    100.00% (Unspecified)
system.caches.Directory_Controller.M.CleanReplacement::total      2981245                       (Unspecified)
system.caches.Directory_Controller.IM.Memory_Data |        4787      0.16%      0.16% |     3076342     99.84%    100.00% (Unspecified)
system.caches.Directory_Controller.IM.Memory_Data::total      3081129                       (Unspecified)
system.caches.Directory_Controller.MI.Memory_Ack |         471      0.47%      0.47% |       99417     99.53%    100.00% (Unspecified)
system.caches.Directory_Controller.MI.Memory_Ack::total        99888                       (Unspecified)
system.caches.L2Cache_Controller.L1_GET_INSTR |        6074     12.68%     12.68% |        7104     14.83%     27.51% |        5812     12.13%     39.64% |        3456      7.21%     46.86% |        5910     12.34%     59.19% |        6341     13.24%     72.43% |        6231     13.01%     85.44% |        6975     14.56%    100.00% (Unspecified)
system.caches.L2Cache_Controller.L1_GET_INSTR::total        47903                       (Unspecified)
system.caches.L2Cache_Controller.L1_GETS |      387580     12.61%     12.61% |      385060     12.53%     25.15% |      384594     12.52%     37.66% |      383285     12.47%     50.14% |      383097     12.47%     62.60% |      382262     12.44%     75.05% |      382526     12.45%     87.49% |      384241     12.51%    100.00% (Unspecified)
system.caches.L2Cache_Controller.L1_GETS::total      3072645                       (Unspecified)
system.caches.L2Cache_Controller.L1_GETX |        4810     13.98%     13.98% |        4293     12.48%     26.45% |        3636     10.57%     37.02% |        3845     11.17%     48.19% |        3608     10.49%     58.68% |        5251     15.26%     73.94% |        4275     12.42%     86.36% |        4693     13.64%    100.00% (Unspecified)
system.caches.L2Cache_Controller.L1_GETX::total        34411                       (Unspecified)
system.caches.L2Cache_Controller.L1_UPGRADE |           0      0.00%      0.00% |          48     87.27%     87.27% |           0      0.00%     87.27% |           0      0.00%     87.27% |           0      0.00%     87.27% |           0      0.00%     87.27% |           7     12.73%    100.00% |           0      0.00%    100.00% (Unspecified)
system.caches.L2Cache_Controller.L1_UPGRADE::total           55                       (Unspecified)
system.caches.L2Cache_Controller.L1_PUTX |      378709     12.51%     12.51% |      378535     12.50%     25.01% |      377207     12.46%     37.47% |      378420     12.50%     49.97% |      378029     12.49%     62.45% |      379503     12.53%     74.98% |      378591     12.50%     87.49% |      378821     12.51%    100.00% (Unspecified)
system.caches.L2Cache_Controller.L1_PUTX::total      3027815                       (Unspecified)
system.caches.L2Cache_Controller.L2_Replacement |       10076     13.02%     13.02% |        9267     11.97%     24.99% |        8670     11.20%     36.19% |        9711     12.55%     48.74% |        9026     11.66%     60.40% |       10731     13.86%     74.26% |        9572     12.37%     86.63% |       10350     13.37%    100.00% (Unspecified)
system.caches.L2Cache_Controller.L2_Replacement::total        77403                       (Unspecified)
system.caches.L2Cache_Controller.L2_Replacement_clean |      375990     12.52%     12.52% |      376402     12.53%     25.05% |      375076     12.49%     37.54% |      375148     12.49%     50.02% |      375492     12.50%     62.53% |      374988     12.48%     75.01% |      375366     12.50%     87.51% |      375269     12.49%    100.00% (Unspecified)
system.caches.L2Cache_Controller.L2_Replacement_clean::total      3003731                       (Unspecified)
system.caches.L2Cache_Controller.Mem_Data |      386066     12.53%     12.53% |      385668     12.52%     25.05% |      383745     12.45%     37.50% |      384858     12.49%     49.99% |      384518     12.48%     62.47% |      385718     12.52%     74.99% |      384937     12.49%     87.48% |      385619     12.52%    100.00% (Unspecified)
system.caches.L2Cache_Controller.Mem_Data::total      3081129                       (Unspecified)
system.caches.L2Cache_Controller.Mem_Ack |      386066     12.53%     12.53% |      385668     12.52%     25.05% |      383746     12.45%     37.50% |      384859     12.49%     49.99% |      384518     12.48%     62.47% |      385719     12.52%     74.99% |      384938     12.49%     87.48% |      385619     12.52%    100.00% (Unspecified)
system.caches.L2Cache_Controller.Mem_Ack::total      3081133                       (Unspecified)
system.caches.L2Cache_Controller.WB_Data |        3084     13.50%     13.50% |        3073     13.45%     26.95% |        2795     12.24%     39.19% |        2808     12.29%     51.48% |        2670     11.69%     63.17% |        2667     11.68%     74.85% |        2847     12.46%     87.31% |        2898     12.69%    100.00% (Unspecified)
system.caches.L2Cache_Controller.WB_Data::total        22842                       (Unspecified)
system.caches.L2Cache_Controller.WB_Data_clean |           3      7.14%      7.14% |          11     26.19%     33.33% |           9     21.43%     54.76% |           7     16.67%     71.43% |           3      7.14%     78.57% |           4      9.52%     88.10% |           4      9.52%     97.62% |           1      2.38%    100.00% (Unspecified)
system.caches.L2Cache_Controller.WB_Data_clean::total           42                       (Unspecified)
system.caches.L2Cache_Controller.Ack     |        2803     13.52%     13.52% |        2273     10.96%     24.48% |        2520     12.15%     36.63% |        2705     13.05%     49.68% |        2705     13.05%     62.72% |        2661     12.83%     75.56% |        2529     12.20%     87.76% |        2539     12.24%    100.00% (Unspecified)
system.caches.L2Cache_Controller.Ack::total        20735                       (Unspecified)
system.caches.L2Cache_Controller.Ack_all |        1458     18.37%     18.37% |        1274     16.05%     34.42% |         888     11.19%     45.60% |         817     10.29%     55.90% |         916     11.54%     67.44% |         756      9.52%     76.96% |         765      9.64%     86.60% |        1064     13.40%    100.00% (Unspecified)
system.caches.L2Cache_Controller.Ack_all::total         7938                       (Unspecified)
system.caches.L2Cache_Controller.Unblock |          99     41.42%     41.42% |          59     24.69%     66.11% |           9      3.77%     69.87% |           7      2.93%     72.80% |           3      1.26%     74.06% |           4      1.67%     75.73% |          57     23.85%     99.58% |           1      0.42%    100.00% (Unspecified)
system.caches.L2Cache_Controller.Unblock::total          239                       (Unspecified)
system.caches.L2Cache_Controller.Exclusive_Unblock |      385941     12.53%     12.53% |      385607     12.52%     25.04% |      383652     12.45%     37.50% |      384834     12.49%     49.99% |      384402     12.48%     62.47% |      385751     12.52%     74.99% |      385055     12.50%     87.49% |      385486     12.51%    100.00% (Unspecified)
system.caches.L2Cache_Controller.Exclusive_Unblock::total      3080728                       (Unspecified)
system.caches.L2Cache_Controller.NP.L1_GET_INSTR |         579     13.59%     13.59% |         556     13.05%     26.64% |         553     12.98%     39.62% |         516     12.11%     51.74% |         534     12.54%     64.27% |         481     11.29%     75.56% |         462     10.85%     86.41% |         579     13.59%    100.00% (Unspecified)
system.caches.L2Cache_Controller.NP.L1_GET_INSTR::total         4260                       (Unspecified)
system.caches.L2Cache_Controller.NP.L1_GETS |      380898     12.51%     12.51% |      380963     12.51%     25.02% |      379922     12.48%     37.50% |      380676     12.50%     50.01% |      380508     12.50%     62.50% |      380332     12.49%     74.99% |      380625     12.50%     87.50% |      380680     12.50%    100.00% (Unspecified)
system.caches.L2Cache_Controller.NP.L1_GETS::total      3044604                       (Unspecified)
system.caches.L2Cache_Controller.NP.L1_GETX |        4589     14.22%     14.22% |        4150     12.86%     27.08% |        3271     10.14%     37.22% |        3667     11.36%     48.58% |        3476     10.77%     59.35% |        4906     15.20%     74.56% |        3851     11.93%     86.49% |        4360     13.51%    100.00% (Unspecified)
system.caches.L2Cache_Controller.NP.L1_GETX::total        32270                       (Unspecified)
system.caches.L2Cache_Controller.SS.L1_GET_INSTR |        5436     12.65%     12.65% |        6512     15.16%     27.81% |        5230     12.17%     39.99% |        2915      6.79%     46.77% |        5353     12.46%     59.23% |        5848     13.61%     72.84% |        5750     13.38%     86.23% |        5917     13.77%    100.00% (Unspecified)
system.caches.L2Cache_Controller.SS.L1_GET_INSTR::total        42961                       (Unspecified)
system.caches.L2Cache_Controller.SS.L1_GETS |        6178     24.53%     24.53% |        3637     14.44%     38.97% |        4462     17.71%     56.68% |        2196      8.72%     65.40% |        2201      8.74%     74.14% |        1669      6.63%     80.76% |        1553      6.17%     86.93% |        3293     13.07%    100.00% (Unspecified)
system.caches.L2Cache_Controller.SS.L1_GETS::total        25189                       (Unspecified)
system.caches.L2Cache_Controller.SS.L1_GETX |          94     66.67%     66.67% |           0      0.00%     66.67% |           0      0.00%     66.67% |           0      0.00%     66.67% |           0      0.00%     66.67% |           0      0.00%     66.67% |          47     33.33%    100.00% |           0      0.00%    100.00% (Unspecified)
system.caches.L2Cache_Controller.SS.L1_GETX::total          141                       (Unspecified)
system.caches.L2Cache_Controller.SS.L1_UPGRADE |           0      0.00%      0.00% |          48     90.57%     90.57% |           0      0.00%     90.57% |           0      0.00%     90.57% |           0      0.00%     90.57% |           0      0.00%     90.57% |           5      9.43%    100.00% |           0      0.00%    100.00% (Unspecified)
system.caches.L2Cache_Controller.SS.L1_UPGRADE::total           53                       (Unspecified)
system.caches.L2Cache_Controller.SS.L2_Replacement_clean |         564     13.57%     13.57% |         547     13.16%     26.74% |         539     12.97%     39.71% |         510     12.27%     51.99% |         516     12.42%     64.40% |         466     11.22%     75.62% |         447     10.76%     86.38% |         566     13.62%    100.00% (Unspecified)
system.caches.L2Cache_Controller.SS.L2_Replacement_clean::total         4155                       (Unspecified)
system.caches.L2Cache_Controller.M.L1_GET_INSTR |           0      0.00%      0.00% |           0      0.00%      0.00% |           0      0.00%      0.00% |           0      0.00%      0.00% |           0      0.00%      0.00% |           0      0.00%      0.00% |           0      0.00%      0.00% |           1    100.00%    100.00% (Unspecified)
system.caches.L2Cache_Controller.M.L1_GET_INSTR::total            1                       (Unspecified)
system.caches.L2Cache_Controller.M.L1_GETS |         328     13.85%     13.85% |         388     16.38%     30.22% |         185      7.81%     38.03% |         393     16.59%     54.62% |         367     15.49%     70.11% |         248     10.47%     80.58% |         246     10.38%     90.97% |         214      9.03%    100.00% (Unspecified)
system.caches.L2Cache_Controller.M.L1_GETS::total         2369                       (Unspecified)
system.caches.L2Cache_Controller.M.L1_GETX |          44      3.31%      3.31% |          61      4.59%      7.89% |         276     20.75%     28.65% |         101      7.59%     36.24% |          57      4.29%     40.53% |         268     20.15%     60.68% |         281     21.13%     81.80% |         242     18.20%    100.00% (Unspecified)
system.caches.L2Cache_Controller.M.L1_GETX::total         1330                       (Unspecified)
system.caches.L2Cache_Controller.M.L2_Replacement |       10069     13.04%     13.04% |        9243     11.97%     25.00% |        8628     11.17%     36.17% |        9689     12.54%     48.71% |        9025     11.68%     60.40% |       10731     13.89%     74.29% |        9542     12.35%     86.64% |       10317     13.36%    100.00% (Unspecified)
system.caches.L2Cache_Controller.M.L2_Replacement::total        77244                       (Unspecified)
system.caches.L2Cache_Controller.M.L2_Replacement_clean |      371551     12.50%     12.50% |      372127     12.52%     25.01% |      371435     12.49%     37.50% |      371545     12.50%     50.00% |      371907     12.51%     62.51% |      371565     12.50%     75.01% |      371837     12.51%     87.51% |      371340     12.49%    100.00% (Unspecified)
system.caches.L2Cache_Controller.M.L2_Replacement_clean::total      2973307                       (Unspecified)
system.caches.L2Cache_Controller.MT.L1_GETS |          99     41.42%     41.42% |          59     24.69%     66.11% |           9      3.77%     69.87% |           7      2.93%     72.80% |           3      1.26%     74.06% |           4      1.67%     75.73% |          57     23.85%     99.58% |           1      0.42%    100.00% (Unspecified)
system.caches.L2Cache_Controller.MT.L1_GETS::total          239                       (Unspecified)
system.caches.L2Cache_Controller.MT.L1_GETX |           1     50.00%     50.00% |           0      0.00%     50.00% |           0      0.00%     50.00% |           0      0.00%     50.00% |           0      0.00%     50.00% |           0      0.00%     50.00% |           1     50.00%    100.00% |           0      0.00%    100.00% (Unspecified)
system.caches.L2Cache_Controller.MT.L1_GETX::total            2                       (Unspecified)
system.caches.L2Cache_Controller.MT.L1_PUTX |      378709     12.51%     12.51% |      378535     12.50%     25.01% |      377207     12.46%     37.47% |      378420     12.50%     49.97% |      378029     12.49%     62.45% |      379503     12.53%     74.98% |      378591     12.50%     87.49% |      378821     12.51%    100.00% (Unspecified)
system.caches.L2Cache_Controller.MT.L1_PUTX::total      3027815                       (Unspecified)
system.caches.L2Cache_Controller.MT.L2_Replacement |           7      4.40%      4.40% |          24     15.09%     19.50% |          42     26.42%     45.91% |          22     13.84%     59.75% |           1      0.63%     60.38% |           0      0.00%     60.38% |          30     18.87%     79.25% |          33     20.75%    100.00% (Unspecified)
system.caches.L2Cache_Controller.MT.L2_Replacement::total          159                       (Unspecified)
system.caches.L2Cache_Controller.MT.L2_Replacement_clean |        3875     14.75%     14.75% |        3728     14.19%     28.94% |        3102     11.81%     40.75% |        3093     11.77%     52.53% |        3069     11.68%     64.21% |        2957     11.26%     75.47% |        3082     11.73%     87.20% |        3363     12.80%    100.00% (Unspecified)
system.caches.L2Cache_Controller.MT.L2_Replacement_clean::total        26269                       (Unspecified)
system.caches.L2Cache_Controller.M_I.L1_GET_INSTR |           0      0.00%      0.00% |           0      0.00%      0.00% |           0      0.00%      0.00% |           0      0.00%      0.00% |           0      0.00%      0.00% |           0      0.00%      0.00% |           0      0.00%      0.00% |         112    100.00%    100.00% (Unspecified)
system.caches.L2Cache_Controller.M_I.L1_GET_INSTR::total          112                       (Unspecified)
system.caches.L2Cache_Controller.M_I.L1_GETX |          82     12.28%     12.28% |          82     12.28%     24.55% |          89     13.32%     37.87% |          77     11.53%     49.40% |          75     11.23%     60.63% |          77     11.53%     72.16% |          95     14.22%     86.38% |          91     13.62%    100.00% (Unspecified)
system.caches.L2Cache_Controller.M_I.L1_GETX::total          668                       (Unspecified)
system.caches.L2Cache_Controller.M_I.Mem_Ack |      386066     12.53%     12.53% |      385668     12.52%     25.05% |      383746     12.45%     37.50% |      384859     12.49%     49.99% |      384518     12.48%     62.47% |      385719     12.52%     74.99% |      384938     12.49%     87.48% |      385619     12.52%    100.00% (Unspecified)
system.caches.L2Cache_Controller.M_I.Mem_Ack::total      3081133                       (Unspecified)
system.caches.L2Cache_Controller.MT_I.WB_Data |           7      4.40%      4.40% |          24     15.09%     19.50% |          42     26.42%     45.91% |          22     13.84%     59.75% |           1      0.63%     60.38% |           0      0.00%     60.38% |          30     18.87%     79.25% |          33     20.75%    100.00% (Unspecified)
system.caches.L2Cache_Controller.MT_I.WB_Data::total          159                       (Unspecified)
system.caches.L2Cache_Controller.MCT_I.WB_Data |        2981     13.26%     13.26% |        3001     13.35%     26.60% |        2753     12.24%     38.85% |        2786     12.39%     51.24% |        2669     11.87%     63.11% |        2667     11.86%     74.97% |        2764     12.29%     87.26% |        2865     12.74%    100.00% (Unspecified)
system.caches.L2Cache_Controller.MCT_I.WB_Data::total        22486                       (Unspecified)
system.caches.L2Cache_Controller.MCT_I.Ack_all |         894     23.63%     23.63% |         727     19.22%     42.85% |         349      9.23%     52.08% |         307      8.12%     60.19% |         400     10.57%     70.76% |         290      7.67%     78.43% |         318      8.41%     86.84% |         498     13.16%    100.00% (Unspecified)
system.caches.L2Cache_Controller.MCT_I.Ack_all::total         3783                       (Unspecified)
system.caches.L2Cache_Controller.I_I.L1_GET_INSTR |           0      0.00%      0.00% |           0      0.00%      0.00% |           0      0.00%      0.00% |           0      0.00%      0.00% |           0      0.00%      0.00% |           0      0.00%      0.00% |           0      0.00%      0.00% |           4    100.00%    100.00% (Unspecified)
system.caches.L2Cache_Controller.I_I.L1_GET_INSTR::total            4                       (Unspecified)
system.caches.L2Cache_Controller.I_I.Ack |        2803     13.52%     13.52% |        2273     10.96%     24.48% |        2520     12.15%     36.63% |        2705     13.05%     49.68% |        2705     13.05%     62.72% |        2661     12.83%     75.56% |        2529     12.20%     87.76% |        2539     12.24%    100.00% (Unspecified)
system.caches.L2Cache_Controller.I_I.Ack::total        20735                       (Unspecified)
system.caches.L2Cache_Controller.I_I.Ack_all |         564     13.57%     13.57% |         547     13.16%     26.74% |         539     12.97%     39.71% |         510     12.27%     51.99% |         516     12.42%     64.40% |         466     11.22%     75.62% |         447     10.76%     86.38% |         566     13.62%    100.00% (Unspecified)
system.caches.L2Cache_Controller.I_I.Ack_all::total         4155                       (Unspecified)
system.caches.L2Cache_Controller.ISS.L1_GETS |          13     36.11%     36.11% |           2      5.56%     41.67% |           1      2.78%     44.44% |           2      5.56%     50.00% |           6     16.67%     66.67% |           2      5.56%     72.22% |           0      0.00%     72.22% |          10     27.78%    100.00% (Unspecified)
system.caches.L2Cache_Controller.ISS.L1_GETS::total           36                       (Unspecified)
system.caches.L2Cache_Controller.ISS.Mem_Data |      380885     12.51%     12.51% |      380960     12.51%     25.02% |      379920     12.48%     37.50% |      380673     12.50%     50.01% |      380502     12.50%     62.50% |      380329     12.49%     74.99% |      380624     12.50%     87.50% |      380670     12.50%    100.00% (Unspecified)
system.caches.L2Cache_Controller.ISS.Mem_Data::total      3044563                       (Unspecified)
system.caches.L2Cache_Controller.IS.L1_GET_INSTR |          59     10.44%     10.44% |          36      6.37%     16.81% |          29      5.13%     21.95% |          25      4.42%     26.37% |          23      4.07%     30.44% |          12      2.12%     32.57% |          19      3.36%     35.93% |         362     64.07%    100.00% (Unspecified)
system.caches.L2Cache_Controller.IS.L1_GET_INSTR::total          565                       (Unspecified)
system.caches.L2Cache_Controller.IS.L1_GETS |          63     42.00%     42.00% |          10      6.67%     48.67% |           4      2.67%     51.33% |          11      7.33%     58.67% |          12      8.00%     66.67% |           7      4.67%     71.33% |           0      0.00%     71.33% |          43     28.67%    100.00% (Unspecified)
system.caches.L2Cache_Controller.IS.L1_GETS::total          150                       (Unspecified)
system.caches.L2Cache_Controller.IS.Mem_Data |         592     13.78%     13.78% |         558     12.99%     26.77% |         554     12.90%     39.66% |         518     12.06%     51.72% |         540     12.57%     64.29% |         483     11.24%     75.54% |         462     10.75%     86.29% |         589     13.71%    100.00% (Unspecified)
system.caches.L2Cache_Controller.IS.Mem_Data::total         4296                       (Unspecified)
system.caches.L2Cache_Controller.IM.Mem_Data |        4589     14.22%     14.22% |        4150     12.86%     27.08% |        3271     10.14%     37.22% |        3667     11.36%     48.58% |        3476     10.77%     59.35% |        4906     15.20%     74.56% |        3851     11.93%     86.49% |        4360     13.51%    100.00% (Unspecified)
system.caches.L2Cache_Controller.IM.Mem_Data::total        32270                       (Unspecified)
system.caches.L2Cache_Controller.SS_MB.L1_GETS |           0      0.00%      0.00% |           0      0.00%      0.00% |           0      0.00%      0.00% |           0      0.00%      0.00% |           0      0.00%      0.00% |           0      0.00%      0.00% |          20    100.00%    100.00% |           0      0.00%    100.00% (Unspecified)
system.caches.L2Cache_Controller.SS_MB.L1_GETS::total           20                       (Unspecified)
system.caches.L2Cache_Controller.SS_MB.Exclusive_Unblock |          94     48.45%     48.45% |          48     24.74%     73.20% |           0      0.00%     73.20% |           0      0.00%     73.20% |           0      0.00%     73.20% |           0      0.00%     73.20% |          52     26.80%    100.00% |           0      0.00%    100.00% (Unspecified)
system.caches.L2Cache_Controller.SS_MB.Exclusive_Unblock::total          194                       (Unspecified)
system.caches.L2Cache_Controller.MT_MB.Exclusive_Unblock |      385847     12.53%     12.53% |      385559     12.52%     25.04% |      383652     12.45%     37.50% |      384834     12.49%     49.99% |      384402     12.48%     62.47% |      385751     12.52%     74.99% |      385003     12.50%     87.49% |      385486     12.51%    100.00% (Unspecified)
system.caches.L2Cache_Controller.MT_MB.Exclusive_Unblock::total      3080534                       (Unspecified)
system.caches.L2Cache_Controller.MT_IIB.L1_GETS |           0      0.00%      0.00% |           0      0.00%      0.00% |          11     30.56%     30.56% |           0      0.00%     30.56% |           0      0.00%     30.56% |           0      0.00%     30.56% |          25     69.44%    100.00% |           0      0.00%    100.00% (Unspecified)
system.caches.L2Cache_Controller.MT_IIB.L1_GETS::total           36                       (Unspecified)
system.caches.L2Cache_Controller.MT_IIB.WB_Data |          96     48.73%     48.73% |          48     24.37%     73.10% |           0      0.00%     73.10% |           0      0.00%     73.10% |           0      0.00%     73.10% |           0      0.00%     73.10% |          53     26.90%    100.00% |           0      0.00%    100.00% (Unspecified)
system.caches.L2Cache_Controller.MT_IIB.WB_Data::total          197                       (Unspecified)
system.caches.L2Cache_Controller.MT_IIB.WB_Data_clean |           3      7.14%      7.14% |          11     26.19%     33.33% |           9     21.43%     54.76% |           7     16.67%     71.43% |           3      7.14%     78.57% |           4      9.52%     88.10% |           4      9.52%     97.62% |           1      2.38%    100.00% (Unspecified)
system.caches.L2Cache_Controller.MT_IIB.WB_Data_clean::total           42                       (Unspecified)
system.caches.L2Cache_Controller.MT_SB.L1_GETS |           1     50.00%     50.00% |           1     50.00%    100.00% |           0      0.00%    100.00% |           0      0.00%    100.00% |           0      0.00%    100.00% |           0      0.00%    100.00% |           0      0.00%    100.00% |           0      0.00%    100.00% (Unspecified)
system.caches.L2Cache_Controller.MT_SB.L1_GETS::total            2                       (Unspecified)
system.caches.L2Cache_Controller.MT_SB.L1_UPGRADE |           0      0.00%      0.00% |           0      0.00%      0.00% |           0      0.00%      0.00% |           0      0.00%      0.00% |           0      0.00%      0.00% |           0      0.00%      0.00% |           2    100.00%    100.00% |           0      0.00%    100.00% (Unspecified)
system.caches.L2Cache_Controller.MT_SB.L1_UPGRADE::total            2                       (Unspecified)
system.caches.L2Cache_Controller.MT_SB.Unblock |          99     41.42%     41.42% |          59     24.69%     66.11% |           9      3.77%     69.87% |           7      2.93%     72.80% |           3      1.26%     74.06% |           4      1.67%     75.73% |          57     23.85%     99.58% |           1      0.42%    100.00% (Unspecified)
system.caches.L2Cache_Controller.MT_SB.Unblock::total          239                       (Unspecified)
system.caches.RequestType.LD.latency_hist_seqr::bucket_size          512                       (Unspecified)
system.caches.RequestType.LD.latency_hist_seqr::max_bucket         5119                       (Unspecified)
system.caches.RequestType.LD.latency_hist_seqr::samples     48745246                       (Unspecified)
system.caches.RequestType.LD.latency_hist_seqr::mean    34.776529                       (Unspecified)
system.caches.RequestType.LD.latency_hist_seqr::gmean     1.479224                       (Unspecified)
system.caches.RequestType.LD.latency_hist_seqr::stdev   142.893395                       (Unspecified)
system.caches.RequestType.LD.latency_hist_seqr |    48076219     98.63%     98.63% |      552916      1.13%     99.76% |       37075      0.08%     99.84% |       76737      0.16%    100.00% |        2050      0.00%    100.00% |         239      0.00%    100.00% |           7      0.00%    100.00% |           1      0.00%    100.00% |           2      0.00%    100.00% |           0      0.00%    100.00% (Unspecified)
system.caches.RequestType.LD.latency_hist_seqr::total     48745246                       (Unspecified)
system.caches.RequestType.LD.hit_latency_hist_seqr::bucket_size            1                       (Unspecified)
system.caches.RequestType.LD.hit_latency_hist_seqr::max_bucket            9                       (Unspecified)
system.caches.RequestType.LD.hit_latency_hist_seqr::samples     45672664                       (Unspecified)
system.caches.RequestType.LD.hit_latency_hist_seqr::mean     1.000008                       (Unspecified)
system.caches.RequestType.LD.hit_latency_hist_seqr::gmean     1.000006                       (Unspecified)
system.caches.RequestType.LD.hit_latency_hist_seqr::stdev     0.002854                       (Unspecified)
system.caches.RequestType.LD.hit_latency_hist_seqr |           0      0.00%      0.00% |    45672292    100.00%    100.00% |         372      0.00%    100.00% |           0      0.00%    100.00% |           0      0.00%    100.00% |           0      0.00%    100.00% |           0      0.00%    100.00% |           0      0.00%    100.00% |           0      0.00%    100.00% |           0      0.00%    100.00% (Unspecified)
system.caches.RequestType.LD.hit_latency_hist_seqr::total     45672664                       (Unspecified)
system.caches.RequestType.LD.miss_latency_hist_seqr::bucket_size          512                       (Unspecified)
system.caches.RequestType.LD.miss_latency_hist_seqr::max_bucket         5119                       (Unspecified)
system.caches.RequestType.LD.miss_latency_hist_seqr::samples      3072582                       (Unspecified)
system.caches.RequestType.LD.miss_latency_hist_seqr::mean   536.850584                       (Unspecified)
system.caches.RequestType.LD.miss_latency_hist_seqr::gmean   498.292408                       (Unspecified)
system.caches.RequestType.LD.miss_latency_hist_seqr::stdev   234.296339                       (Unspecified)
system.caches.RequestType.LD.miss_latency_hist_seqr |     2403555     78.23%     78.23% |      552916     18.00%     96.22% |       37075      1.21%     97.43% |       76737      2.50%     99.93% |        2050      0.07%     99.99% |         239      0.01%    100.00% |           7      0.00%    100.00% |           1      0.00%    100.00% |           2      0.00%    100.00% |           0      0.00%    100.00% (Unspecified)
system.caches.RequestType.LD.miss_latency_hist_seqr::total      3072582                       (Unspecified)
system.caches.RequestType.ST.latency_hist_seqr::bucket_size         1024                       (Unspecified)
system.caches.RequestType.ST.latency_hist_seqr::max_bucket        10239                       (Unspecified)
system.caches.RequestType.ST.latency_hist_seqr::samples     48617737                       (Unspecified)
system.caches.RequestType.ST.latency_hist_seqr::mean     1.053308                       (Unspecified)
system.caches.RequestType.ST.latency_hist_seqr::gmean     1.000658                       (Unspecified)
system.caches.RequestType.ST.latency_hist_seqr::stdev     6.446426                       (Unspecified)
system.caches.RequestType.ST.latency_hist_seqr |    48617469    100.00%    100.00% |         230      0.00%    100.00% |          34      0.00%    100.00% |           1      0.00%    100.00% |           2      0.00%    100.00% |           1      0.00%    100.00% |           0      0.00%    100.00% |           0      0.00%    100.00% |           0      0.00%    100.00% |           0      0.00%    100.00% (Unspecified)
system.caches.RequestType.ST.latency_hist_seqr::total     48617737                       (Unspecified)
system.caches.RequestType.ST.hit_latency_hist_seqr::bucket_size           64                       (Unspecified)
system.caches.RequestType.ST.hit_latency_hist_seqr::max_bucket          639                       (Unspecified)
system.caches.RequestType.ST.hit_latency_hist_seqr::samples     48612274                       (Unspecified)
system.caches.RequestType.ST.hit_latency_hist_seqr::mean     1.000061                       (Unspecified)
system.caches.RequestType.ST.hit_latency_hist_seqr::gmean     1.000023                       (Unspecified)
system.caches.RequestType.ST.hit_latency_hist_seqr::stdev     0.091636                       (Unspecified)
system.caches.RequestType.ST.hit_latency_hist_seqr |    48612269    100.00%    100.00% |           1      0.00%    100.00% |           0      0.00%    100.00% |           0      0.00%    100.00% |           3      0.00%    100.00% |           1      0.00%    100.00% |           0      0.00%    100.00% |           0      0.00%    100.00% |           0      0.00%    100.00% |           0      0.00%    100.00% (Unspecified)
system.caches.RequestType.ST.hit_latency_hist_seqr::total     48612274                       (Unspecified)
system.caches.RequestType.ST.miss_latency_hist_seqr::bucket_size         1024                       (Unspecified)
system.caches.RequestType.ST.miss_latency_hist_seqr::max_bucket        10239                       (Unspecified)
system.caches.RequestType.ST.miss_latency_hist_seqr::samples         5463                       (Unspecified)
system.caches.RequestType.ST.miss_latency_hist_seqr::mean   474.870584                       (Unspecified)
system.caches.RequestType.ST.miss_latency_hist_seqr::gmean   283.697883                       (Unspecified)
system.caches.RequestType.ST.miss_latency_hist_seqr::stdev   381.121092                       (Unspecified)
system.caches.RequestType.ST.miss_latency_hist_seqr |        5195     95.09%     95.09% |         230      4.21%     99.30% |          34      0.62%     99.93% |           1      0.02%     99.95% |           2      0.04%     99.98% |           1      0.02%    100.00% |           0      0.00%    100.00% |           0      0.00%    100.00% |           0      0.00%    100.00% |           0      0.00%    100.00% (Unspecified)
system.caches.RequestType.ST.miss_latency_hist_seqr::total         5463                       (Unspecified)
system.caches.RequestType.IFETCH.latency_hist_seqr::bucket_size          256                       (Unspecified)
system.caches.RequestType.IFETCH.latency_hist_seqr::max_bucket         2559                       (Unspecified)
system.caches.RequestType.IFETCH.latency_hist_seqr::samples     97159575                       (Unspecified)
system.caches.RequestType.IFETCH.latency_hist_seqr::mean     1.019943                       (Unspecified)
system.caches.RequestType.IFETCH.latency_hist_seqr::gmean     1.001417                       (Unspecified)
system.caches.RequestType.IFETCH.latency_hist_seqr::stdev     2.407872                       (Unspecified)
system.caches.RequestType.IFETCH.latency_hist_seqr |    97157365    100.00%    100.00% |        1896      0.00%    100.00% |         160      0.00%    100.00% |         104      0.00%    100.00% |          11      0.00%    100.00% |          24      0.00%    100.00% |           9      0.00%    100.00% |           3      0.00%    100.00% |           3      0.00%    100.00% |           0      0.00%    100.00% (Unspecified)
system.caches.RequestType.IFETCH.latency_hist_seqr::total     97159575                       (Unspecified)
system.caches.RequestType.IFETCH.hit_latency_hist_seqr::bucket_size            1                       (Unspecified)
system.caches.RequestType.IFETCH.hit_latency_hist_seqr::max_bucket            9                       (Unspecified)
system.caches.RequestType.IFETCH.hit_latency_hist_seqr::samples     97111788                       (Unspecified)
system.caches.RequestType.IFETCH.hit_latency_hist_seqr::mean            1                       (Unspecified)
system.caches.RequestType.IFETCH.hit_latency_hist_seqr::gmean            1                       (Unspecified)
system.caches.RequestType.IFETCH.hit_latency_hist_seqr |           0      0.00%      0.00% |    97111788    100.00%    100.00% |           0      0.00%    100.00% |           0      0.00%    100.00% |           0      0.00%    100.00% |           0      0.00%    100.00% |           0      0.00%    100.00% |           0      0.00%    100.00% |           0      0.00%    100.00% |           0      0.00%    100.00% (Unspecified)
system.caches.RequestType.IFETCH.hit_latency_hist_seqr::total     97111788                       (Unspecified)
system.caches.RequestType.IFETCH.miss_latency_hist_seqr::bucket_size          256                       (Unspecified)
system.caches.RequestType.IFETCH.miss_latency_hist_seqr::max_bucket         2559                       (Unspecified)
system.caches.RequestType.IFETCH.miss_latency_hist_seqr::samples        47787                       (Unspecified)
system.caches.RequestType.IFETCH.miss_latency_hist_seqr::mean    41.548392                       (Unspecified)
system.caches.RequestType.IFETCH.miss_latency_hist_seqr::gmean    17.787371                       (Unspecified)
system.caches.RequestType.IFETCH.miss_latency_hist_seqr::stdev   100.721964                       (Unspecified)
system.caches.RequestType.IFETCH.miss_latency_hist_seqr |       45577     95.38%     95.38% |        1896      3.97%     99.34% |         160      0.33%     99.68% |         104      0.22%     99.90% |          11      0.02%     99.92% |          24      0.05%     99.97% |           9      0.02%     99.99% |           3      0.01%     99.99% |           3      0.01%    100.00% |           0      0.00%    100.00% (Unspecified)
system.caches.RequestType.IFETCH.miss_latency_hist_seqr::total        47787                       (Unspecified)
system.caches.RequestType.RMW_Read.latency_hist_seqr::bucket_size          512                       (Unspecified)
system.caches.RequestType.RMW_Read.latency_hist_seqr::max_bucket         5119                       (Unspecified)
system.caches.RequestType.RMW_Read.latency_hist_seqr::samples     48409549                       (Unspecified)
system.caches.RequestType.RMW_Read.latency_hist_seqr::mean     1.140894                       (Unspecified)
system.caches.RequestType.RMW_Read.latency_hist_seqr::gmean     1.002863                       (Unspecified)
system.caches.RequestType.RMW_Read.latency_hist_seqr::stdev     9.461838                       (Unspecified)
system.caches.RequestType.RMW_Read.latency_hist_seqr |    48404208     99.99%     99.99% |        4761      0.01%    100.00% |         262      0.00%    100.00% |         260      0.00%    100.00% |          35      0.00%    100.00% |          10      0.00%    100.00% |           7      0.00%    100.00% |           1      0.00%    100.00% |           3      0.00%    100.00% |           2      0.00%    100.00% (Unspecified)
system.caches.RequestType.RMW_Read.latency_hist_seqr::total     48409549                       (Unspecified)
system.caches.RequestType.RMW_Read.hit_latency_hist_seqr::bucket_size          512                       (Unspecified)
system.caches.RequestType.RMW_Read.hit_latency_hist_seqr::max_bucket         5119                       (Unspecified)
system.caches.RequestType.RMW_Read.hit_latency_hist_seqr::samples     48382076                       (Unspecified)
system.caches.RequestType.RMW_Read.hit_latency_hist_seqr::mean     1.002924                       (Unspecified)
system.caches.RequestType.RMW_Read.hit_latency_hist_seqr::gmean     1.000062                       (Unspecified)
system.caches.RequestType.RMW_Read.hit_latency_hist_seqr::stdev     1.643898                       (Unspecified)
system.caches.RequestType.RMW_Read.hit_latency_hist_seqr |    48381951    100.00%    100.00% |         111      0.00%    100.00% |           1      0.00%    100.00% |           8      0.00%    100.00% |           3      0.00%    100.00% |           1      0.00%    100.00% |           1      0.00%    100.00% |           0      0.00%    100.00% |           0      0.00%    100.00% |           0      0.00%    100.00% (Unspecified)
system.caches.RequestType.RMW_Read.hit_latency_hist_seqr::total     48382076                       (Unspecified)
system.caches.RequestType.RMW_Read.miss_latency_hist_seqr::bucket_size          512                       (Unspecified)
system.caches.RequestType.RMW_Read.miss_latency_hist_seqr::max_bucket         5119                       (Unspecified)
system.caches.RequestType.RMW_Read.miss_latency_hist_seqr::samples        27473                       (Unspecified)
system.caches.RequestType.RMW_Read.miss_latency_hist_seqr::mean   244.116514                       (Unspecified)
system.caches.RequestType.RMW_Read.miss_latency_hist_seqr::gmean   138.192776                       (Unspecified)
system.caches.RequestType.RMW_Read.miss_latency_hist_seqr::stdev   306.473486                       (Unspecified)
system.caches.RequestType.RMW_Read.miss_latency_hist_seqr |       22257     81.01%     81.01% |        4650     16.93%     97.94% |         261      0.95%     98.89% |         252      0.92%     99.81% |          32      0.12%     99.92% |           9      0.03%     99.96% |           6      0.02%     99.98% |           1      0.00%     99.98% |           3      0.01%     99.99% |           2      0.01%    100.00% (Unspecified)
system.caches.RequestType.RMW_Read.miss_latency_hist_seqr::total        27473                       (Unspecified)
system.caches.RequestType.Locked_RMW_Read.latency_hist_seqr::bucket_size          512                       (Unspecified)
system.caches.RequestType.Locked_RMW_Read.latency_hist_seqr::max_bucket         5119                       (Unspecified)
system.caches.RequestType.Locked_RMW_Read.latency_hist_seqr::samples         2799                       (Unspecified)
system.caches.RequestType.Locked_RMW_Read.latency_hist_seqr::mean   152.700250                       (Unspecified)
system.caches.RequestType.Locked_RMW_Read.latency_hist_seqr::gmean     6.130946                       (Unspecified)
system.caches.RequestType.Locked_RMW_Read.latency_hist_seqr::stdev   286.256701                       (Unspecified)
system.caches.RequestType.Locked_RMW_Read.latency_hist_seqr |        2401     85.78%     85.78% |         362     12.93%     98.71% |          17      0.61%     99.32% |          14      0.50%     99.82% |           4      0.14%     99.96% |           1      0.04%    100.00% |           0      0.00%    100.00% |           0      0.00%    100.00% |           0      0.00%    100.00% |           0      0.00%    100.00% (Unspecified)
system.caches.RequestType.Locked_RMW_Read.latency_hist_seqr::total         2799                       (Unspecified)
system.caches.RequestType.Locked_RMW_Read.hit_latency_hist_seqr::bucket_size            1                       (Unspecified)
system.caches.RequestType.Locked_RMW_Read.hit_latency_hist_seqr::max_bucket            9                       (Unspecified)
system.caches.RequestType.Locked_RMW_Read.hit_latency_hist_seqr::samples         1939                       (Unspecified)
system.caches.RequestType.Locked_RMW_Read.hit_latency_hist_seqr::mean            1                       (Unspecified)
system.caches.RequestType.Locked_RMW_Read.hit_latency_hist_seqr::gmean            1                       (Unspecified)
system.caches.RequestType.Locked_RMW_Read.hit_latency_hist_seqr |           0      0.00%      0.00% |        1939    100.00%    100.00% |           0      0.00%    100.00% |           0      0.00%    100.00% |           0      0.00%    100.00% |           0      0.00%    100.00% |           0      0.00%    100.00% |           0      0.00%    100.00% |           0      0.00%    100.00% |           0      0.00%    100.00% (Unspecified)
system.caches.RequestType.Locked_RMW_Read.hit_latency_hist_seqr::total         1939                       (Unspecified)
system.caches.RequestType.Locked_RMW_Read.miss_latency_hist_seqr::bucket_size          512                       (Unspecified)
system.caches.RequestType.Locked_RMW_Read.miss_latency_hist_seqr::max_bucket         5119                       (Unspecified)
system.caches.RequestType.Locked_RMW_Read.miss_latency_hist_seqr::samples          860                       (Unspecified)
system.caches.RequestType.Locked_RMW_Read.miss_latency_hist_seqr::mean   494.731395                       (Unspecified)
system.caches.RequestType.Locked_RMW_Read.miss_latency_hist_seqr::gmean   365.701869                       (Unspecified)
system.caches.RequestType.Locked_RMW_Read.miss_latency_hist_seqr::stdev   312.797898                       (Unspecified)
system.caches.RequestType.Locked_RMW_Read.miss_latency_hist_seqr |         462     53.72%     53.72% |         362     42.09%     95.81% |          17      1.98%     97.79% |          14      1.63%     99.42% |           4      0.47%     99.88% |           1      0.12%    100.00% |           0      0.00%    100.00% |           0      0.00%    100.00% |           0      0.00%    100.00% |           0      0.00%    100.00% (Unspecified)
system.caches.RequestType.Locked_RMW_Read.miss_latency_hist_seqr::total          860                       (Unspecified)
system.caches.RequestType.Locked_RMW_Write.latency_hist_seqr::bucket_size            1                       (Unspecified)
system.caches.RequestType.Locked_RMW_Write.latency_hist_seqr::max_bucket            9                       (Unspecified)
system.caches.RequestType.Locked_RMW_Write.latency_hist_seqr::samples         2799                       (Unspecified)
system.caches.RequestType.Locked_RMW_Write.latency_hist_seqr::mean            1                       (Unspecified)
system.caches.RequestType.Locked_RMW_Write.latency_hist_seqr::gmean            1                       (Unspecified)
system.caches.RequestType.Locked_RMW_Write.latency_hist_seqr |           0      0.00%      0.00% |        2799    100.00%    100.00% |           0      0.00%    100.00% |           0      0.00%    100.00% |           0      0.00%    100.00% |           0      0.00%    100.00% |           0      0.00%    100.00% |           0      0.00%    100.00% |           0      0.00%    100.00% |           0      0.00%    100.00% (Unspecified)
system.caches.RequestType.Locked_RMW_Write.latency_hist_seqr::total         2799                       (Unspecified)
system.caches.RequestType.Locked_RMW_Write.hit_latency_hist_seqr::bucket_size            1                       (Unspecified)
system.caches.RequestType.Locked_RMW_Write.hit_latency_hist_seqr::max_bucket            9                       (Unspecified)
system.caches.RequestType.Locked_RMW_Write.hit_latency_hist_seqr::samples         2799                       (Unspecified)
system.caches.RequestType.Locked_RMW_Write.hit_latency_hist_seqr::mean            1                       (Unspecified)
system.caches.RequestType.Locked_RMW_Write.hit_latency_hist_seqr::gmean            1                       (Unspecified)
[...]
system.o3Cpu7.iew.idleCycles                        0                       # Number of cycles IEW is idle (Cycle)
system.o3Cpu7.iew.squashCycles                   1337                       # Number of cycles IEW is squashing (Cycle)
system.o3Cpu7.iew.blockCycles               200023807                       # Number of cycles IEW is blocking (Cycle)
system.o3Cpu7.iew.unblockCycles                576183                       # Number of cycles IEW is unblocking (Cycle)
system.o3Cpu7.iew.dispatchedInsts            85106083                       # Number of instructions dispatched to IQ (Count)
system.o3Cpu7.iew.dispSquashedInsts               164                       # Number of squashed instructions skipped by dispatch (Count)
system.o3Cpu7.iew.dispLoadInsts              12159143                       # Number of dispatched load instructions (Count)
system.o3Cpu7.iew.dispStoreInsts              6080509                       # Number of dispatched store instructions (Count)
system.o3Cpu7.iew.dispNonSpecInsts               1836                       # Number of dispatched non-speculative instructions (Count)
system.o3Cpu7.iew.iqFullEvents                 329064                       # Number of times the IQ has become full, causing a stall (Count)
system.o3Cpu7.iew.lsqFullEvents                 77677                       # Number of times the LSQ has become full, causing a stall (Count)
system.o3Cpu7.iew.memOrderViolationEvents          438                       # Number of memory order violations (Count)
system.o3Cpu7.iew.predictedTakenIncorrect          402                       # Number of branches that were predicted taken incorrectly (Count)
system.o3Cpu7.iew.predictedNotTakenIncorrect          473                       # Number of branches that were predicted not taken incorrectly (Count)
system.o3Cpu7.iew.branchMispredicts               875                       # Number of branch mispredicts detected at execute (Count)
system.o3Cpu7.iew.instsToCommit              85098305                       # Cumulative count of insts sent to commit (Count)
system.o3Cpu7.iew.writebackCount             85098113                       # Cumulative count of insts written-back (Count)
system.o3Cpu7.iew.producerInst               64105337                       # Number of instructions producing a value (Count)
system.o3Cpu7.iew.consumerInst               95940129                       # Number of instructions consuming a value (Count)
system.o3Cpu7.iew.wbRate                     0.350840                       # Insts written-back per cycle ((Count/Cycle))
system.o3Cpu7.iew.wbFanout                   0.668181                       # Average fanout of values written-back ((Count/Count))
system.o3Cpu7.interrupts.clk_domain.clock         3200                       # Clock period in ticks (Tick)
system.o3Cpu7.lsq0.forwLoads                    15003                       # Number of loads that had data forwarded from stores (Count)
system.o3Cpu7.lsq0.squashedLoads                 3612                       # Number of loads squashed (Count)
system.o3Cpu7.lsq0.ignoredResponses                 1                       # Number of memory responses ignored because the instruction is squashed (Count)
system.o3Cpu7.lsq0.memOrderViolation              438                       # Number of memory ordering violations (Count)
system.o3Cpu7.lsq0.squashedStores                1678                       # Number of stores squashed (Count)
system.o3Cpu7.lsq0.rescheduledLoads                27                       # Number of loads that were rescheduled (Count)
system.o3Cpu7.lsq0.blockedByCache                   0                       # Number of times an access to memory failed due to the cache being blocked (Count)
system.o3Cpu7.lsq0.loadToUse::samples        12155522                       # Distribution of cycle latency between the first time a load is issued and its completion (Unspecified)
system.o3Cpu7.lsq0.loadToUse::mean          20.050382                       # Distribution of cycle latency between the first time a load is issued and its completion (Unspecified)
system.o3Cpu7.lsq0.loadToUse::stdev        102.910036                       # Distribution of cycle latency between the first time a load is issued and its completion (Unspecified)
system.o3Cpu7.lsq0.loadToUse::0-9            11767743     96.81%     96.81% # Distribution of cycle latency between the first time a load is issued and its completion (Unspecified)
system.o3Cpu7.lsq0.loadToUse::10-19              1439      0.01%     96.82% # Distribution of cycle latency between the first time a load is issued and its completion (Unspecified)
system.o3Cpu7.lsq0.loadToUse::20-29               434      0.00%     96.83% # Distribution of cycle latency between the first time a load is issued and its completion (Unspecified)
system.o3Cpu7.lsq0.loadToUse::30-39               491      0.00%     96.83% # Distribution of cycle latency between the first time a load is issued and its completion (Unspecified)
system.o3Cpu7.lsq0.loadToUse::40-49               160      0.00%     96.83% # Distribution of cycle latency between the first time a load is issued and its completion (Unspecified)
system.o3Cpu7.lsq0.loadToUse::50-59                73      0.00%     96.83% # Distribution of cycle latency between the first time a load is issued and its completion (Unspecified)
system.o3Cpu7.lsq0.loadToUse::60-69                42      0.00%     96.83% # Distribution of cycle latency between the first time a load is issued and its completion (Unspecified)
system.o3Cpu7.lsq0.loadToUse::70-79              2084      0.02%     96.85% # Distribution of cycle latency between the first time a load is issued and its completion (Unspecified)
system.o3Cpu7.lsq0.loadToUse::80-89                79      0.00%     96.85% # Distribution of cycle latency between the first time a load is issued and its completion (Unspecified)
system.o3Cpu7.lsq0.loadToUse::90-99                17      0.00%     96.85% # Distribution of cycle latency between the first time a load is issued and its completion (Unspecified)
system.o3Cpu7.lsq0.loadToUse::100-109              17      0.00%     96.85% # Distribution of cycle latency between the first time a load is issued and its completion (Unspecified)
system.o3Cpu7.lsq0.loadToUse::110-119              33      0.00%     96.85% # Distribution of cycle latency between the first time a load is issued and its completion (Unspecified)
system.o3Cpu7.lsq0.loadToUse::120-129              17      0.00%     96.85% # Distribution of cycle latency between the first time a load is issued and its completion (Unspecified)
system.o3Cpu7.lsq0.loadToUse::130-139              15      0.00%     96.85% # Distribution of cycle latency between the first time a load is issued and its completion (Unspecified)
system.o3Cpu7.lsq0.loadToUse::140-149              16      0.00%     96.85% # Distribution of cycle latency between the first time a load is issued and its completion (Unspecified)
system.o3Cpu7.lsq0.loadToUse::150-159               7      0.00%     96.85% # Distribution of cycle latency between the first time a load is issued and its completion (Unspecified)
system.o3Cpu7.lsq0.loadToUse::160-169               4      0.00%     96.85% # Distribution of cycle latency between the first time a load is issued and its completion (Unspecified)
system.o3Cpu7.lsq0.loadToUse::170-179               3      0.00%     96.85% # Distribution of cycle latency between the first time a load is issued and its completion (Unspecified)
system.o3Cpu7.lsq0.loadToUse::180-189               2      0.00%     96.85% # Distribution of cycle latency between the first time a load is issued and its completion (Unspecified)
system.o3Cpu7.lsq0.loadToUse::190-199               7      0.00%     96.85% # Distribution of cycle latency between the first time a load is issued and its completion (Unspecified)
system.o3Cpu7.lsq0.loadToUse::200-209               7      0.00%     96.85% # Distribution of cycle latency between the first time a load is issued and its completion (Unspecified)
system.o3Cpu7.lsq0.loadToUse::210-219               5      0.00%     96.85% # Distribution of cycle latency between the first time a load is issued and its completion (Unspecified)
system.o3Cpu7.lsq0.loadToUse::220-229               3      0.00%     96.85% # Distribution of cycle latency between the first time a load is issued and its completion (Unspecified)
system.o3Cpu7.lsq0.loadToUse::230-239               9      0.00%     96.85% # Distribution of cycle latency between the first time a load is issued and its completion (Unspecified)
system.o3Cpu7.lsq0.loadToUse::240-249              12      0.00%     96.85% # Distribution of cycle latency between the first time a load is issued and its completion (Unspecified)
system.o3Cpu7.lsq0.loadToUse::250-259              22      0.00%     96.85% # Distribution of cycle latency between the first time a load is issued and its completion (Unspecified)
system.o3Cpu7.lsq0.loadToUse::260-269              13      0.00%     96.85% # Distribution of cycle latency between the first time a load is issued and its completion (Unspecified)
system.o3Cpu7.lsq0.loadToUse::270-279              10      0.00%     96.85% # Distribution of cycle latency between the first time a load is issued and its completion (Unspecified)
system.o3Cpu7.lsq0.loadToUse::280-289              11      0.00%     96.85% # Distribution of cycle latency between the first time a load is issued and its completion (Unspecified)
system.o3Cpu7.lsq0.loadToUse::290-299              10      0.00%     96.85% # Distribution of cycle latency between the first time a load is issued and its completion (Unspecified)
system.o3Cpu7.lsq0.loadToUse::overflows        382737      3.15%    100.00% # Distribution of cycle latency between the first time a load is issued and its completion (Unspecified)
system.o3Cpu7.lsq0.loadToUse::min_value             2                       # Distribution of cycle latency between the first time a load is issued and its completion (Unspecified)
system.o3Cpu7.lsq0.loadToUse::max_value          4565                       # Distribution of cycle latency between the first time a load is issued and its completion (Unspecified)
system.o3Cpu7.lsq0.loadToUse::total          12155522                       # Distribution of cycle latency between the first time a load is issued and its completion (Unspecified)
system.o3Cpu7.mmu.dtb.rdAccesses             12159578                       # TLB accesses on read requests (Count)
system.o3Cpu7.mmu.dtb.wrAccesses              6080651                       # TLB accesses on write requests (Count)
system.o3Cpu7.mmu.dtb.rdMisses                   1314                       # TLB misses on read requests (Count)
system.o3Cpu7.mmu.dtb.wrMisses                    837                       # TLB misses on write requests (Count)
system.o3Cpu7.mmu.dtb.walker.power_state.pwrStateResidencyTicks::UNDEFINED  49521144400                       # Cumulative time (in ticks) in various power states (Tick)
system.o3Cpu7.mmu.itb.rdAccesses                    0                       # TLB accesses on read requests (Count)
system.o3Cpu7.mmu.itb.wrAccesses             12148949                       # TLB accesses on write requests (Count)
system.o3Cpu7.mmu.itb.rdMisses                      0                       # TLB misses on read requests (Count)
system.o3Cpu7.mmu.itb.wrMisses                     92                       # TLB misses on write requests (Count)
system.o3Cpu7.mmu.itb.walker.power_state.pwrStateResidencyTicks::UNDEFINED  49521144400                       # Cumulative time (in ticks) in various power states (Tick)
system.o3Cpu7.power_state.pwrStateResidencyTicks::OFF  49521144400                       # Cumulative time (in ticks) in various power states (Tick)
system.o3Cpu7.rename.squashCycles                1337                       # Number of cycles rename is squashing (Cycle)
system.o3Cpu7.rename.idleCycles               8592469                       # Number of cycles rename is idle (Cycle)
system.o3Cpu7.rename.blockCycles            205545772                       # Number of cycles rename is blocking (Cycle)
system.o3Cpu7.rename.serializeStallCycles       324950                       # count of cycles rename stalled for serializing inst (Cycle)
system.o3Cpu7.rename.runCycles               18607898                       # Number of cycles rename is running (Cycle)
system.o3Cpu7.rename.unblockCycles            9374050                       # Number of cycles rename is unblocking (Cycle)
system.o3Cpu7.rename.renamedInsts            85108464                       # Number of instructions processed by rename (Count)
system.o3Cpu7.rename.ROBFullEvents              43173                       # Number of times rename has blocked due to ROB full (Count)
system.o3Cpu7.rename.IQFullEvents             6795564                       # Number of times rename has blocked due to IQ full (Count)
system.o3Cpu7.rename.LQFullEvents              113168                       # Number of times rename has blocked due to LQ full (Count)
system.o3Cpu7.rename.SQFullEvents               57720                       # Number of times rename has blocked due to SQ full (Count)
system.o3Cpu7.rename.renamedOperands        194333611                       # Number of destination operands rename has renamed (Count)
system.o3Cpu7.rename.lookups                322003445                       # Number of register rename lookups that rename has made (Count)
system.o3Cpu7.rename.intLookups             139732775                       # Number of integer rename lookups (Count)
system.o3Cpu7.rename.committedMaps          194296472                       # Number of HB maps that are committed (Count)
system.o3Cpu7.rename.undoneMaps                 37001                       # Number of HB maps that are undone due to squashing (Count)
system.o3Cpu7.rename.serializing                 1839                       # count of serializing insts renamed (Count)
system.o3Cpu7.rename.tempSerializing             1853                       # count of temporary serializing insts renamed (Count)
system.o3Cpu7.rename.skidInsts               17392539                       # count of insts added to the skid buffer (Count)
system.o3Cpu7.rob.reads                     309699007                       # The number of ROB reads (Count)
system.o3Cpu7.rob.writes                    170216118                       # The number of ROB writes (Count)
system.o3Cpu7.thread_0.numInsts              48593551                       # Number of Instructions committed (Count)
system.o3Cpu7.thread_0.numOps                85083144                       # Number of Ops committed (Count)
system.o3Cpu7.thread_0.numMemRefs                   0                       # Number of Memory References (Count)
system.pc.bad_addr.power_state.pwrStateResidencyTicks::UNDEFINED  49521144400                       # Cumulative time (in ticks) in various power states (Tick)
system.pc.com_1.power_state.pwrStateResidencyTicks::UNDEFINED  49521144400                       # Cumulative time (in ticks) in various power states (Tick)
system.pc.default_bus.power_state.pwrStateResidencyTicks::UNDEFINED  49521144400                       # Cumulative time (in ticks) in various power states (Tick)
system.pc.empty_isa.power_state.pwrStateResidencyTicks::UNDEFINED  49521144400                       # Cumulative time (in ticks) in various power states (Tick)
system.pc.fake_com_2.power_state.pwrStateResidencyTicks::UNDEFINED  49521144400                       # Cumulative time (in ticks) in various power states (Tick)
system.pc.fake_com_3.power_state.pwrStateResidencyTicks::UNDEFINED  49521144400                       # Cumulative time (in ticks) in various power states (Tick)
system.pc.fake_com_4.power_state.pwrStateResidencyTicks::UNDEFINED  49521144400                       # Cumulative time (in ticks) in various power states (Tick)
system.pc.fake_floppy.power_state.pwrStateResidencyTicks::UNDEFINED  49521144400                       # Cumulative time (in ticks) in various power states (Tick)
system.pc.pci_host.power_state.pwrStateResidencyTicks::UNDEFINED  49521144400                       # Cumulative time (in ticks) in various power states (Tick)
system.pc.south_bridge.cmos.power_state.pwrStateResidencyTicks::UNDEFINED  49521144400                       # Cumulative time (in ticks) in various power states (Tick)
system.pc.south_bridge.dma1.power_state.pwrStateResidencyTicks::UNDEFINED  49521144400                       # Cumulative time (in ticks) in various power states (Tick)
system.pc.south_bridge.ide.disks0.IdeDisk.dmaReadFullPages            0                       # Number of full page size DMA reads (not PRD). (Count)
system.pc.south_bridge.ide.disks0.IdeDisk.dmaReadBytes            0                       # Number of bytes transfered via DMA reads (not PRD). (Byte)
system.pc.south_bridge.ide.disks0.IdeDisk.dmaReadTxs            0                       # Number of DMA read transactions (not PRD). (Count)
system.pc.south_bridge.ide.disks0.IdeDisk.dmaWriteFullPages            0                       # Number of full page size DMA writes. (Count)
system.pc.south_bridge.ide.disks0.IdeDisk.dmaWriteBytes            0                       # Number of bytes transfered via DMA writes. (Byte)
system.pc.south_bridge.ide.disks0.IdeDisk.dmaWriteTxs            0                       # Number of DMA write transactions. (Count)
system.pc.south_bridge.ide.disks1.IdeDisk.dmaReadFullPages            0                       # Number of full page size DMA reads (not PRD). (Count)
system.pc.south_bridge.ide.disks1.IdeDisk.dmaReadBytes            0                       # Number of bytes transfered via DMA reads (not PRD). (Byte)
system.pc.south_bridge.ide.disks1.IdeDisk.dmaReadTxs            0                       # Number of DMA read transactions (not PRD). (Count)
system.pc.south_bridge.ide.disks1.IdeDisk.dmaWriteFullPages            0                       # Number of full page size DMA writes. (Count)
system.pc.south_bridge.ide.disks1.IdeDisk.dmaWriteBytes            0                       # Number of bytes transfered via DMA writes. (Byte)
system.pc.south_bridge.ide.disks1.IdeDisk.dmaWriteTxs            0                       # Number of DMA write transactions. (Count)
system.pc.south_bridge.ide.power_state.pwrStateResidencyTicks::UNDEFINED  49521144400                       # Cumulative time (in ticks) in various power states (Tick)
system.pc.south_bridge.io_apic.power_state.pwrStateResidencyTicks::UNDEFINED  49521144400                       # Cumulative time (in ticks) in various power states (Tick)
system.pc.south_bridge.keyboard.power_state.pwrStateResidencyTicks::UNDEFINED  49521144400                       # Cumulative time (in ticks) in various power states (Tick)
system.pc.south_bridge.pic1.power_state.pwrStateResidencyTicks::UNDEFINED  49521144400                       # Cumulative time (in ticks) in various power states (Tick)
system.pc.south_bridge.pic2.power_state.pwrStateResidencyTicks::UNDEFINED  49521144400                       # Cumulative time (in ticks) in various power states (Tick)
system.pc.south_bridge.pit.power_state.pwrStateResidencyTicks::UNDEFINED  49521144400                       # Cumulative time (in ticks) in various power states (Tick)
system.pc.south_bridge.speaker.power_state.pwrStateResidencyTicks::UNDEFINED  49521144400                       # Cumulative time (in ticks) in various power states (Tick)
system.workload.inst.arm                            0                       # number of arm instructions executed (Count)
system.workload.inst.quiesce                        0                       # number of quiesce instructions executed (Count)

---------- End Simulation Statistics   ----------
