
---------- Begin Simulation Statistics ----------
simSeconds                                   0.031471                       # Number of seconds simulated (Second)
simTicks                                  31471244600                       # Number of ticks simulated (Tick)
finalTick                                104661175345200                       # Number of ticks from beginning of simulation (restored from checkpoints and never reset) (Tick)
simFreq                                  1000000000000                       # The number of ticks per simulated second ((Tick/Second))
hostSeconds                                  14450.96                       # Real time elapsed on the host (Second)
hostTickRate                                  2177796                       # The number of ticks simulated per host second (ticks/s) ((Tick/Second))
hostMemory                                   20080852                       # Number of bytes of host memory used (Byte)
simInsts                                    862355036                       # Number of instructions simulated (Count)
simOps                                     1805741706                       # Number of ops (including micro ops) simulated (Count)
hostInstRate                                    59675                       # Simulator instruction rate (inst/s) ((Count/Second))
hostOpRate                                     124957                       # Simulator op (including micro ops) rate (op/s) ((Count/Second))
system.caches.delayHistogram::bucket_size            8                       # delay histogram for all message (Unspecified)
system.caches.delayHistogram::max_bucket           79                       # delay histogram for all message (Unspecified)
system.caches.delayHistogram::samples         8859829                       # delay histogram for all message (Unspecified)
system.caches.delayHistogram::mean           1.018167                       # delay histogram for all message (Unspecified)
system.caches.delayHistogram::stdev          2.629717                       # delay histogram for all message (Unspecified)
system.caches.delayHistogram             |     7978434     90.05%     90.05% |      872446      9.85%     99.90% |        8557      0.10%    100.00% |         183      0.00%    100.00% |         102      0.00%    100.00% |          39      0.00%    100.00% |          21      0.00%    100.00% |          25      0.00%    100.00% |          22      0.00%    100.00% |           0      0.00%    100.00% # delay histogram for all message (Unspecified)
system.caches.delayHistogram::total           8859829                       # delay histogram for all message (Unspecified)
system.caches.m_outstandReqHistSeqr::bucket_size            2                       (Unspecified)
system.caches.m_outstandReqHistSeqr::max_bucket           19                       (Unspecified)
system.caches.m_outstandReqHistSeqr::samples    383652548                       (Unspecified)
system.caches.m_outstandReqHistSeqr::mean     2.506485                       (Unspecified)
system.caches.m_outstandReqHistSeqr::gmean     2.206619                       (Unspecified)
system.caches.m_outstandReqHistSeqr::stdev     1.248704                       (Unspecified)
system.caches.m_outstandReqHistSeqr      |    83516253     21.77%     21.77% |   217882671     56.79%     78.56% |    76777169     20.01%     98.57% |     5424055      1.41%     99.99% |        9134      0.00%     99.99% |        5813      0.00%     99.99% |        9144      0.00%     99.99% |        9517      0.00%    100.00% |       18792      0.00%    100.00% |           0      0.00%    100.00% (Unspecified)
system.caches.m_outstandReqHistSeqr::total    383652548                       (Unspecified)
system.caches.m_latencyHistSeqr::bucket_size          512                       (Unspecified)
system.caches.m_latencyHistSeqr::max_bucket         5119                       (Unspecified)
system.caches.m_latencyHistSeqr::samples    384209109                       (Unspecified)
system.caches.m_latencyHistSeqr::mean        3.556591                       (Unspecified)
system.caches.m_latencyHistSeqr::gmean       1.035767                       (Unspecified)
system.caches.m_latencyHistSeqr::stdev      50.765801                       (Unspecified)
system.caches.m_latencyHistSeqr          |   383379960     99.78%     99.78% |      515344      0.13%     99.92% |      249522      0.06%     99.98% |       41385      0.01%     99.99% |       14366      0.00%    100.00% |        7627      0.00%    100.00% |         804      0.00%    100.00% |          83      0.00%    100.00% |          17      0.00%    100.00% |           1      0.00%    100.00% (Unspecified)
system.caches.m_latencyHistSeqr::total      384209109                       (Unspecified)
system.caches.m_hitLatencyHistSeqr::bucket_size          256                       (Unspecified)
system.caches.m_hitLatencyHistSeqr::max_bucket         2559                       (Unspecified)
system.caches.m_hitLatencyHistSeqr::samples    382884805                       (Unspecified)
system.caches.m_hitLatencyHistSeqr::mean     1.019547                       (Unspecified)
system.caches.m_hitLatencyHistSeqr::gmean     1.013432                       (Unspecified)
system.caches.m_hitLatencyHistSeqr::stdev     0.522310                       (Unspecified)
system.caches.m_hitLatencyHistSeqr       |   382884647    100.00%    100.00% |          46      0.00%    100.00% |          52      0.00%    100.00% |          28      0.00%    100.00% |          22      0.00%    100.00% |           9      0.00%    100.00% |           1      0.00%    100.00% |           0      0.00%    100.00% |           0      0.00%    100.00% |           0      0.00%    100.00% (Unspecified)
system.caches.m_hitLatencyHistSeqr::total    382884805                       (Unspecified)
system.caches.m_missLatencyHistSeqr::bucket_size          512                       (Unspecified)
system.caches.m_missLatencyHistSeqr::max_bucket         5119                       (Unspecified)
system.caches.m_missLatencyHistSeqr::samples      1324304                       (Unspecified)
system.caches.m_missLatencyHistSeqr::mean   737.070663                       (Unspecified)
system.caches.m_missLatencyHistSeqr::gmean   565.506193                       (Unspecified)
system.caches.m_missLatencyHistSeqr::stdev   455.750976                       (Unspecified)
system.caches.m_missLatencyHistSeqr      |      495267     37.40%     37.40% |      515264     38.91%     76.31% |      249491     18.84%     95.15% |       41384      3.12%     98.27% |       14366      1.08%     99.36% |        7627      0.58%     99.93% |         804      0.06%     99.99% |          83      0.01%    100.00% |          17      0.00%    100.00% |           1      0.00%    100.00% (Unspecified)
system.caches.m_missLatencyHistSeqr::total      1324304                       (Unspecified)
system.caches.delayVCHist.vnet_0::bucket_size            8                       # delay histogram for vnet_0 (Unspecified)
system.caches.delayVCHist.vnet_0::max_bucket           79                       # delay histogram for vnet_0 (Unspecified)
system.caches.delayVCHist.vnet_0::samples      3803827                       # delay histogram for vnet_0 (Unspecified)
system.caches.delayVCHist.vnet_0::mean       2.347915                       # delay histogram for vnet_0 (Unspecified)
system.caches.delayVCHist.vnet_0::stdev      3.582723                       # delay histogram for vnet_0 (Unspecified)
system.caches.delayVCHist.vnet_0         |     2923801     76.86%     76.86% |      871453     22.91%     99.77% |        8350      0.22%     99.99% |          92      0.00%    100.00% |          47      0.00%    100.00% |          19      0.00%    100.00% |          18      0.00%    100.00% |          25      0.00%    100.00% |          22      0.00%    100.00% |           0      0.00%    100.00% # delay histogram for vnet_0 (Unspecified)
system.caches.delayVCHist.vnet_0::total       3803827                       # delay histogram for vnet_0 (Unspecified)
system.caches.delayVCHist.vnet_1::bucket_size            8                       # delay histogram for vnet_1 (Unspecified)
system.caches.delayVCHist.vnet_1::max_bucket           79                       # delay histogram for vnet_1 (Unspecified)
system.caches.delayVCHist.vnet_1::samples      4973313                       # delay histogram for vnet_1 (Unspecified)
system.caches.delayVCHist.vnet_1::mean       0.018036                       # delay histogram for vnet_1 (Unspecified)
system.caches.delayVCHist.vnet_1::stdev      0.363581                       # delay histogram for vnet_1 (Unspecified)
system.caches.delayVCHist.vnet_1         |     4971944     99.97%     99.97% |         993      0.02%     99.99% |         207      0.00%    100.00% |          91      0.00%    100.00% |          55      0.00%    100.00% |          20      0.00%    100.00% |           3      0.00%    100.00% |           0      0.00%    100.00% |           0      0.00%    100.00% |           0      0.00%    100.00% # delay histogram for vnet_1 (Unspecified)
system.caches.delayVCHist.vnet_1::total       4973313                       # delay histogram for vnet_1 (Unspecified)
system.caches.delayVCHist.vnet_2::bucket_size            1                       # delay histogram for vnet_2 (Unspecified)
system.caches.delayVCHist.vnet_2::max_bucket            9                       # delay histogram for vnet_2 (Unspecified)
system.caches.delayVCHist.vnet_2::samples        82689                       # delay histogram for vnet_2 (Unspecified)
system.caches.delayVCHist.vnet_2::mean       0.000290                       # delay histogram for vnet_2 (Unspecified)
system.caches.delayVCHist.vnet_2::stdev      0.027819                       # delay histogram for vnet_2 (Unspecified)
system.caches.delayVCHist.vnet_2         |       82679     99.99%     99.99% |           0      0.00%     99.99% |           8      0.01%    100.00% |           0      0.00%    100.00% |           2      0.00%    100.00% |           0      0.00%    100.00% |           0      0.00%    100.00% |           0      0.00%    100.00% |           0      0.00%    100.00% |           0      0.00%    100.00% # delay histogram for vnet_2 (Unspecified)
system.caches.delayVCHist.vnet_2::total         82689                       # delay histogram for vnet_2 (Unspecified)
system.caches.L1Cache_Controller.Load    |    31151930     11.89%     11.89% |    36948810     14.11%     26.00% |    32065992     12.24%     38.24% |    33779884     12.90%     51.14% |    32318451     12.34%     63.48% |    31987884     12.21%     75.69% |    31713523     12.11%     87.80% |    31950263     12.20%    100.00% (Unspecified)
system.caches.L1Cache_Controller.Load::total    261916737                       (Unspecified)
system.caches.L1Cache_Controller.Ifetch  |     9116614     11.87%     11.87% |    10635467     13.85%     25.72% |     9446356     12.30%     38.02% |     9863016     12.84%     50.86% |     9499681     12.37%     63.23% |     9415767     12.26%     75.49% |     9421648     12.27%     87.75% |     9406614     12.25%    100.00% (Unspecified)
system.caches.L1Cache_Controller.Ifetch::total     76805163                       (Unspecified)
system.caches.L1Cache_Controller.Store   |     5302151     11.66%     11.66% |     5857905     12.88%     24.53% |     5859012     12.88%     37.42% |     5852883     12.87%     50.28% |     5567045     12.24%     62.52% |     5551483     12.20%     74.73% |     5887533     12.94%     87.67% |     5609205     12.33%    100.00% (Unspecified)
system.caches.L1Cache_Controller.Store::total     45487217                       (Unspecified)
system.caches.L1Cache_Controller.Inv     |       19180     24.86%     24.86% |       20850     27.02%     51.89% |        5370      6.96%     58.85% |        4860      6.30%     65.14% |        7567      9.81%     74.95% |        7897     10.24%     85.19% |        4581      5.94%     91.13% |        6846      8.87%    100.00% (Unspecified)
system.caches.L1Cache_Controller.Inv::total        77151                       (Unspecified)
system.caches.L1Cache_Controller.L1_Replacement |      136226     10.89%     10.89% |      117742      9.41%     20.29% |      187544     14.99%     35.28% |      162223     12.96%     48.24% |      147335     11.77%     60.02% |      150237     12.01%     72.02% |      192090     15.35%     87.37% |      158021     12.63%    100.00% (Unspecified)
system.caches.L1Cache_Controller.L1_Replacement::total      1251418                       (Unspecified)
system.caches.L1Cache_Controller.Fwd_GETX |          72      1.62%      1.62% |          33      0.74%      2.36% |         341      7.66%     10.02% |         253      5.68%     15.70% |         289      6.49%     22.19% |         311      6.98%     29.17% |        2831     63.58%     92.75% |         323      7.25%    100.00% (Unspecified)
system.caches.L1Cache_Controller.Fwd_GETX::total         4453                       (Unspecified)
system.caches.L1Cache_Controller.Fwd_GETS |         417     38.43%     38.43% |         193     17.79%     56.22% |          69      6.36%     62.58% |          57      5.25%     67.83% |          97      8.94%     76.77% |          68      6.27%     83.04% |          98      9.03%     92.07% |          86      7.93%    100.00% (Unspecified)
system.caches.L1Cache_Controller.Fwd_GETS::total         1085                       (Unspecified)
system.caches.L1Cache_Controller.Data    |           4     36.36%     36.36% |           0      0.00%     36.36% |           1      9.09%     45.45% |           2     18.18%     63.64% |           0      0.00%     63.64% |           2     18.18%     81.82% |           1      9.09%     90.91% |           1      9.09%    100.00% (Unspecified)
system.caches.L1Cache_Controller.Data::total           11                       (Unspecified)
system.caches.L1Cache_Controller.Data_Exclusive |        1876     11.49%     11.49% |        1287      7.88%     19.38% |        2659     16.29%     35.67% |        2011     12.32%     47.98% |        1839     11.27%     59.25% |        1910     11.70%     70.95% |        2711     16.61%     87.56% |        2031     12.44%    100.00% (Unspecified)
system.caches.L1Cache_Controller.Data_Exclusive::total        16324                       (Unspecified)
system.caches.L1Cache_Controller.DataS_fromL1 |         218     20.09%     20.09% |         274     25.25%     45.35% |         105      9.68%     55.02% |          85      7.83%     62.86% |         149     13.73%     76.59% |          71      6.54%     83.13% |         127     11.71%     94.84% |          56      5.16%    100.00% (Unspecified)
system.caches.L1Cache_Controller.DataS_fromL1::total         1085                       (Unspecified)
system.caches.L1Cache_Controller.Data_all_Acks |      137009     10.49%     10.49% |      125976      9.64%     20.13% |      194746     14.91%     35.04% |      170032     13.02%     48.06% |      155258     11.89%     59.95% |      158188     12.11%     72.06% |      199124     15.24%     87.30% |      165880     12.70%    100.00% (Unspecified)
system.caches.L1Cache_Controller.Data_all_Acks::total      1306213                       (Unspecified)
system.caches.L1Cache_Controller.Ack     |        1180     66.59%     66.59% |          46      2.60%     69.19% |          93      5.25%     74.44% |          77      4.35%     78.78% |          82      4.63%     83.41% |          73      4.12%     87.53% |         144      8.13%     95.65% |          77      4.35%    100.00% (Unspecified)
system.caches.L1Cache_Controller.Ack::total         1772                       (Unspecified)
system.caches.L1Cache_Controller.Ack_all |         264     38.71%     38.71% |          23      3.37%     42.08% |          64      9.38%     51.47% |          60      8.80%     60.26% |          55      8.06%     68.33% |          61      8.94%     77.27% |          96     14.08%     91.35% |          59      8.65%    100.00% (Unspecified)
system.caches.L1Cache_Controller.Ack_all::total          682                       (Unspecified)
system.caches.L1Cache_Controller.WB_Ack  |      117194      9.95%      9.95% |       98139      8.33%     18.28% |      182944     15.53%     33.80% |      158302     13.43%     47.24% |      140604     11.93%     59.17% |      143216     12.15%     71.32% |      185810     15.77%     87.09% |      152074     12.91%    100.00% (Unspecified)
system.caches.L1Cache_Controller.WB_Ack::total      1178283                       (Unspecified)
system.caches.L1Cache_Controller.NP.Load |        1994     10.98%     10.98% |        1253      6.90%     17.88% |        3030     16.68%     34.56% |        2281     12.56%     47.12% |        2113     11.63%     58.76% |        2159     11.89%     70.65% |        3058     16.84%     87.48% |        2273     12.52%    100.00% (Unspecified)
system.caches.L1Cache_Controller.NP.Load::total        18161                       (Unspecified)
system.caches.L1Cache_Controller.NP.Ifetch |        4052     31.86%     31.86% |        1171      9.21%     41.07% |        1325     10.42%     51.49% |        1292     10.16%     61.64% |        1369     10.76%     72.41% |        1291     10.15%     82.56% |         974      7.66%     90.22% |        1244      9.78%    100.00% (Unspecified)
system.caches.L1Cache_Controller.NP.Ifetch::total        12718                       (Unspecified)
system.caches.L1Cache_Controller.NP.Store |      130894     10.21%     10.21% |      123933      9.67%     19.88% |      191820     14.97%     34.85% |      167277     13.05%     47.90% |      152501     11.90%     59.80% |      155409     12.13%     71.93% |      196584     15.34%     87.27% |      163139     12.73%    100.00% (Unspecified)
system.caches.L1Cache_Controller.NP.Store::total      1281557                       (Unspecified)
system.caches.L1Cache_Controller.NP.Inv  |         824     23.97%     23.97% |         353     10.27%     34.24% |         389     11.31%     45.55% |         397     11.55%     57.10% |         433     12.59%     69.69% |         389     11.31%     81.01% |         280      8.14%     89.15% |         373     10.85%    100.00% (Unspecified)
system.caches.L1Cache_Controller.NP.Inv::total         3438                       (Unspecified)
system.caches.L1Cache_Controller.I.Load  |         472     11.25%     11.25% |         540     12.87%     24.12% |         526     12.54%     36.66% |         514     12.25%     48.92% |         527     12.56%     61.48% |         548     13.06%     74.54% |         534     12.73%     87.27% |         534     12.73%    100.00% (Unspecified)
system.caches.L1Cache_Controller.I.Load::total         4195                       (Unspecified)
system.caches.L1Cache_Controller.I.Ifetch |         941     17.41%     17.41% |         511      9.45%     26.86% |         690     12.77%     39.63% |         658     12.17%     51.80% |         619     11.45%     63.26% |         639     11.82%     75.08% |         686     12.69%     87.77% |         661     12.23%    100.00% (Unspecified)
system.caches.L1Cache_Controller.I.Ifetch::total         5405                       (Unspecified)
system.caches.L1Cache_Controller.I.Store |         754     47.04%     47.04% |         130      8.11%     55.15% |         121      7.55%     62.69% |         108      6.74%     69.43% |         118      7.36%     76.79% |         126      7.86%     84.65% |         128      7.99%     92.64% |         118      7.36%    100.00% (Unspecified)
system.caches.L1Cache_Controller.I.Store::total         1603                       (Unspecified)
system.caches.L1Cache_Controller.I.L1_Replacement |       15472     25.15%     25.15% |       18680     30.36%     55.50% |        3293      5.35%     60.86% |        2738      4.45%     65.31% |        5485      8.91%     74.22% |        5859      9.52%     83.74% |        5199      8.45%     92.19% |        4804      7.81%    100.00% (Unspecified)
system.caches.L1Cache_Controller.I.L1_Replacement::total        61530                       (Unspecified)
system.caches.L1Cache_Controller.S.Load  |    28383017     11.85%     11.85% |    33075424     13.81%     25.66% |    29490954     12.32%     37.98% |    30860287     12.89%     50.87% |    29694093     12.40%     63.27% |    29427202     12.29%     75.56% |    29144275     12.17%     87.73% |    29392782     12.27%    100.00% (Unspecified)
system.caches.L1Cache_Controller.S.Load::total    239468034                       (Unspecified)
system.caches.L1Cache_Controller.S.Ifetch |     9111619     11.87%     11.87% |    10633785     13.85%     25.71% |     9444341     12.30%     38.01% |     9861066     12.84%     50.86% |     9497693     12.37%     63.22% |     9413837     12.26%     75.48% |     9419988     12.27%     87.75% |     9404709     12.25%    100.00% (Unspecified)
system.caches.L1Cache_Controller.S.Ifetch::total     76787038                       (Unspecified)
system.caches.L1Cache_Controller.S.Store |         260     38.75%     38.75% |          23      3.43%     42.18% |          63      9.39%     51.56% |          58      8.64%     60.21% |          55      8.20%     68.41% |          59      8.79%     77.20% |          95     14.16%     91.36% |          58      8.64%    100.00% (Unspecified)
system.caches.L1Cache_Controller.S.Store::total          671                       (Unspecified)
system.caches.L1Cache_Controller.S.Inv   |        2044     15.29%     15.29% |        1505     11.26%     26.55% |        1690     12.64%     39.19% |        1649     12.34%     51.53% |        1631     12.20%     63.73% |        1618     12.10%     75.84% |        1568     11.73%     87.57% |        1662     12.43%    100.00% (Unspecified)
system.caches.L1Cache_Controller.S.Inv::total        13367                       (Unspecified)
system.caches.L1Cache_Controller.S.L1_Replacement |        3559     30.68%     30.68% |         923      7.96%     38.63% |        1306     11.26%     49.89% |        1183     10.20%     60.08% |        1246     10.74%     70.82% |        1161     10.01%     80.83% |        1081      9.32%     90.15% |        1143      9.85%    100.00% (Unspecified)
system.caches.L1Cache_Controller.S.L1_Replacement::total        11602                       (Unspecified)
system.caches.L1Cache_Controller.E.Load  |       24133      6.19%      6.19% |      310966     79.76%     85.95% |        9983      2.56%     88.51% |        8354      2.14%     90.65% |        9808      2.52%     93.17% |        7892      2.02%     95.19% |       10321      2.65%     97.84% |        8435      2.16%    100.00% (Unspecified)
system.caches.L1Cache_Controller.E.Load::total       389892                       (Unspecified)
system.caches.L1Cache_Controller.E.Store |         795      9.48%      9.48% |         582      6.94%     16.43% |        1473     17.57%     34.00% |        1008     12.02%     46.02% |        1028     12.26%     58.28% |        1017     12.13%     70.42% |        1453     17.33%     87.75% |        1027     12.25%    100.00% (Unspecified)
system.caches.L1Cache_Controller.E.Store::total         8383                       (Unspecified)
system.caches.L1Cache_Controller.E.Inv   |         159     13.58%     13.58% |         223     19.04%     32.62% |         124     10.59%     43.21% |         115      9.82%     53.03% |         130     11.10%     64.13% |         151     12.89%     77.03% |         138     11.78%     88.81% |         131     11.19%    100.00% (Unspecified)
system.caches.L1Cache_Controller.E.Inv::total         1171                       (Unspecified)
system.caches.L1Cache_Controller.E.L1_Replacement |         790     11.62%     11.62% |         415      6.10%     17.72% |        1139     16.75%     34.48% |         894     13.15%     47.62% |         735     10.81%     58.44% |         818     12.03%     70.47% |        1132     16.65%     87.12% |         876     12.88%    100.00% (Unspecified)
system.caches.L1Cache_Controller.E.L1_Replacement::total         6799                       (Unspecified)
system.caches.L1Cache_Controller.E.Fwd_GETX |           1      3.12%      3.12% |           3      9.38%     12.50% |           5     15.62%     28.12% |           5     15.62%     43.75% |           5     15.62%     59.38% |           6     18.75%     78.12% |           2      6.25%     84.38% |           5     15.62%    100.00% (Unspecified)
system.caches.L1Cache_Controller.E.Fwd_GETX::total           32                       (Unspecified)
system.caches.L1Cache_Controller.E.Fwd_GETS |         118     28.23%     28.23% |         162     38.76%     66.99% |          15      3.59%     70.57% |          16      3.83%     74.40% |          39      9.33%     83.73% |          21      5.02%     88.76% |          18      4.31%     93.06% |          29      6.94%    100.00% (Unspecified)
system.caches.L1Cache_Controller.E.Fwd_GETS::total          418                       (Unspecified)
system.caches.L1Cache_Controller.M.Load  |     2742314     12.44%     12.44% |     3560627     16.16%     28.60% |     2561499     11.62%     40.23% |     2908448     13.20%     53.42% |     2611910     11.85%     65.28% |     2550083     11.57%     76.85% |     2555335     11.60%     88.45% |     2546239     11.55%    100.00% (Unspecified)
system.caches.L1Cache_Controller.M.Load::total     22036455                       (Unspecified)
system.caches.L1Cache_Controller.M.Store |     5169448     11.70%     11.70% |     5733237     12.97%     24.67% |     5665535     12.82%     37.49% |     5684432     12.86%     50.35% |     5413343     12.25%     62.60% |     5394872     12.21%     74.81% |     5689273     12.87%     87.68% |     5444863     12.32%    100.00% (Unspecified)
system.caches.L1Cache_Controller.M.Store::total     44195003                       (Unspecified)
system.caches.L1Cache_Controller.M.Inv   |       16153     27.30%     27.30% |       18767     31.72%     59.02% |        3165      5.35%     64.37% |        2699      4.56%     68.93% |        5373      9.08%     78.01% |        5737      9.70%     87.70% |        2595      4.39%     92.09% |        4680      7.91%    100.00% (Unspecified)
system.caches.L1Cache_Controller.M.Inv::total        59169                       (Unspecified)
system.caches.L1Cache_Controller.M.L1_Replacement |      116404      9.94%      9.94% |       97724      8.34%     18.28% |      181806     15.52%     33.80% |      157408     13.44%     47.23% |      139869     11.94%     59.17% |      142398     12.16%     71.33% |      184678     15.76%     87.09% |      151198     12.91%    100.00% (Unspecified)
system.caches.L1Cache_Controller.M.L1_Replacement::total      1171485                       (Unspecified)
system.caches.L1Cache_Controller.M.Fwd_GETX |          71      1.61%      1.61% |          30      0.68%      2.28% |         336      7.60%      9.88% |         248      5.61%     15.49% |         284      6.42%     21.92% |         305      6.90%     28.82% |        2829     63.99%     92.81% |         318      7.19%    100.00% (Unspecified)
system.caches.L1Cache_Controller.M.Fwd_GETX::total         4421                       (Unspecified)
system.caches.L1Cache_Controller.M.Fwd_GETS |         299     44.83%     44.83% |          31      4.65%     49.48% |          54      8.10%     57.57% |          41      6.15%     63.72% |          58      8.70%     72.41% |          47      7.05%     79.46% |          80     11.99%     91.45% |          57      8.55%    100.00% (Unspecified)
system.caches.L1Cache_Controller.M.Fwd_GETS::total          667                       (Unspecified)
system.caches.L1Cache_Controller.IS.Inv  |           0      0.00%      0.00% |           2     33.33%     33.33% |           2     33.33%     66.67% |           0      0.00%     66.67% |           0      0.00%     66.67% |           2     33.33%    100.00% |           0      0.00%    100.00% |           0      0.00%    100.00% (Unspecified)
system.caches.L1Cache_Controller.IS.Inv::total            6                       (Unspecified)
system.caches.L1Cache_Controller.IS.L1_Replacement |           1     50.00%     50.00% |           0      0.00%     50.00% |           0      0.00%     50.00% |           0      0.00%     50.00% |           0      0.00%     50.00% |           1     50.00%    100.00% |           0      0.00%    100.00% |           0      0.00%    100.00% (Unspecified)
system.caches.L1Cache_Controller.IS.L1_Replacement::total            2                       (Unspecified)
system.caches.L1Cache_Controller.IS.Data_Exclusive |        1876     11.49%     11.49% |        1287      7.88%     19.38% |        2659     16.29%     35.67% |        2011     12.32%     47.98% |        1839     11.27%     59.25% |        1910     11.70%     70.95% |        2711     16.61%     87.56% |        2031     12.44%    100.00% (Unspecified)
system.caches.L1Cache_Controller.IS.Data_Exclusive::total        16324                       (Unspecified)
system.caches.L1Cache_Controller.IS.DataS_fromL1 |         218     20.09%     20.09% |         274     25.25%     45.35% |         105      9.68%     55.02% |          85      7.83%     62.86% |         149     13.73%     76.59% |          71      6.54%     83.13% |         127     11.71%     94.84% |          56      5.16%    100.00% (Unspecified)
system.caches.L1Cache_Controller.IS.DataS_fromL1::total         1085                       (Unspecified)
system.caches.L1Cache_Controller.IS.Data_all_Acks |        5365     23.26%     23.26% |        1912      8.29%     31.55% |        2805     12.16%     43.71% |        2649     11.49%     55.20% |        2640     11.45%     66.64% |        2654     11.51%     78.15% |        2414     10.47%     88.62% |        2625     11.38%    100.00% (Unspecified)
system.caches.L1Cache_Controller.IS.Data_all_Acks::total        23064                       (Unspecified)
system.caches.L1Cache_Controller.IM.Data |           4     36.36%     36.36% |           0      0.00%     36.36% |           1      9.09%     45.45% |           2     18.18%     63.64% |           0      0.00%     63.64% |           2     18.18%     81.82% |           1      9.09%     90.91% |           1      9.09%    100.00% (Unspecified)
system.caches.L1Cache_Controller.IM.Data::total           11                       (Unspecified)
system.caches.L1Cache_Controller.IM.Data_all_Acks |      131644     10.26%     10.26% |      124062      9.67%     19.93% |      191939     14.96%     34.89% |      167383     13.04%     47.93% |      152618     11.89%     59.83% |      155532     12.12%     71.95% |      196710     15.33%     87.28% |      163255     12.72%    100.00% (Unspecified)
system.caches.L1Cache_Controller.IM.Data_all_Acks::total      1283143                       (Unspecified)
system.caches.L1Cache_Controller.SM.Ack  |        1180     66.59%     66.59% |          46      2.60%     69.19% |          93      5.25%     74.44% |          77      4.35%     78.78% |          82      4.63%     83.41% |          73      4.12%     87.53% |         144      8.13%     95.65% |          77      4.35%    100.00% (Unspecified)
system.caches.L1Cache_Controller.SM.Ack::total         1772                       (Unspecified)
system.caches.L1Cache_Controller.SM.Ack_all |         264     38.71%     38.71% |          23      3.37%     42.08% |          64      9.38%     51.47% |          60      8.80%     60.26% |          55      8.06%     68.33% |          61      8.94%     77.27% |          96     14.08%     91.35% |          59      8.65%    100.00% (Unspecified)
system.caches.L1Cache_Controller.SM.Ack_all::total          682                       (Unspecified)
system.caches.L1Cache_Controller.IS_I.Data_all_Acks |           0      0.00%      0.00% |           2     33.33%     33.33% |           2     33.33%     66.67% |           0      0.00%     66.67% |           0      0.00%     66.67% |           2     33.33%    100.00% |           0      0.00%    100.00% |           0      0.00%    100.00% (Unspecified)
system.caches.L1Cache_Controller.IS_I.Data_all_Acks::total            6                       (Unspecified)
system.caches.L1Cache_Controller.M_I.Ifetch |           2    100.00%    100.00% |           0      0.00%    100.00% |           0      0.00%    100.00% |           0      0.00%    100.00% |           0      0.00%    100.00% |           0      0.00%    100.00% |           0      0.00%    100.00% |           0      0.00%    100.00% (Unspecified)
system.caches.L1Cache_Controller.M_I.Ifetch::total            2                       (Unspecified)
system.caches.L1Cache_Controller.M_I.WB_Ack |      117194      9.95%      9.95% |       98139      8.33%     18.28% |      182944     15.53%     33.80% |      158302     13.43%     47.24% |      140604     11.93%     59.17% |      143216     12.15%     71.32% |      185810     15.77%     87.09% |      152074     12.91%    100.00% (Unspecified)
system.caches.L1Cache_Controller.M_I.WB_Ack::total      1178283                       (Unspecified)
system.caches.Directory_Controller.Fetch |        2484      0.20%      0.20% |     1259300     99.80%    100.00% (Unspecified)
system.caches.Directory_Controller.Fetch::total      1261784                       (Unspecified)
system.caches.Directory_Controller.Data  |         140      0.01%      0.01% |     1124856     99.99%    100.00% (Unspecified)
system.caches.Directory_Controller.Data::total      1124996                       (Unspecified)
system.caches.Directory_Controller.Memory_Data |        2484      0.20%      0.20% |     1259295     99.80%    100.00% (Unspecified)
system.caches.Directory_Controller.Memory_Data::total      1261779                       (Unspecified)
system.caches.Directory_Controller.Memory_Ack |         140      0.01%      0.01% |     1124855     99.99%    100.00% (Unspecified)
system.caches.Directory_Controller.Memory_Ack::total      1124995                       (Unspecified)
system.caches.Directory_Controller.CleanReplacement |        2602     45.52%     45.52% |        3114     54.48%    100.00% (Unspecified)
system.caches.Directory_Controller.CleanReplacement::total         5716                       (Unspecified)
system.caches.Directory_Controller.I.Fetch |        2484      0.20%      0.20% |     1259300     99.80%    100.00% (Unspecified)
system.caches.Directory_Controller.I.Fetch::total      1261784                       (Unspecified)
system.caches.Directory_Controller.M.Data |         140      0.01%      0.01% |     1124856     99.99%    100.00% (Unspecified)
system.caches.Directory_Controller.M.Data::total      1124996                       (Unspecified)
system.caches.Directory_Controller.M.CleanReplacement |        2602     45.52%     45.52% |        3114     54.48%    100.00% (Unspecified)
system.caches.Directory_Controller.M.CleanReplacement::total         5716                       (Unspecified)
system.caches.Directory_Controller.IM.Memory_Data |        2484      0.20%      0.20% |     1259295     99.80%    100.00% (Unspecified)
system.caches.Directory_Controller.IM.Memory_Data::total      1261779                       (Unspecified)
system.caches.Directory_Controller.MI.Memory_Ack |         140      0.01%      0.01% |     1124855     99.99%    100.00% (Unspecified)
system.caches.Directory_Controller.MI.Memory_Ack::total      1124995                       (Unspecified)
system.caches.L2Cache_Controller.L1_GET_INSTR |        2304     12.69%     12.69% |        2960     16.30%     28.99% |        1826     10.06%     39.05% |        2400     13.22%     52.27% |        1979     10.90%     63.17% |        2053     11.31%     74.48% |        2048     11.28%     85.76% |        2586     14.24%    100.00% (Unspecified)
system.caches.L2Cache_Controller.L1_GET_INSTR::total        18156                       (Unspecified)
system.caches.L2Cache_Controller.L1_GETS |        3485     15.48%     15.48% |        2808     12.47%     27.96% |        2756     12.24%     40.20% |        2675     11.88%     52.08% |        2579     11.46%     63.54% |        2513     11.16%     74.70% |        2781     12.35%     87.06% |        2914     12.94%    100.00% (Unspecified)
system.caches.L2Cache_Controller.L1_GETS::total        22511                       (Unspecified)
system.caches.L2Cache_Controller.L1_GETX |      160502     12.51%     12.51% |      160451     12.50%     25.01% |      160271     12.49%     37.50% |      160376     12.50%     50.00% |      160357     12.50%     62.50% |      160488     12.51%     75.00% |      160416     12.50%     87.51% |      160317     12.49%    100.00% (Unspecified)
system.caches.L2Cache_Controller.L1_GETX::total      1283178                       (Unspecified)
system.caches.L2Cache_Controller.L1_UPGRADE |         141     20.80%     20.80% |          73     10.77%     31.56% |          61      9.00%     40.56% |          43      6.34%     46.90% |          82     12.09%     59.00% |          75     11.06%     70.06% |         130     19.17%     89.23% |          73     10.77%    100.00% (Unspecified)
system.caches.L2Cache_Controller.L1_UPGRADE::total          678                       (Unspecified)
system.caches.L2Cache_Controller.L1_PUTX |      147398     12.51%     12.51% |      147303     12.50%     25.01% |      147362     12.51%     37.52% |      147241     12.50%     50.01% |      147217     12.49%     62.51% |      147252     12.50%     75.01% |      147230     12.50%     87.50% |      147281     12.50%    100.00% (Unspecified)
system.caches.L2Cache_Controller.L1_PUTX::total      1178284                       (Unspecified)
system.caches.L2Cache_Controller.L2_Replacement |      133451     12.50%     12.50% |      133468     12.50%     25.00% |      133494     12.50%     37.51% |      133393     12.49%     50.00% |      133402     12.50%     62.49% |      133488     12.50%     75.00% |      133465     12.50%     87.50% |      133459     12.50%    100.00% (Unspecified)
system.caches.L2Cache_Controller.L2_Replacement::total      1067620                       (Unspecified)
system.caches.L2Cache_Controller.L2_Replacement_clean |        7922     12.56%     12.56% |        7895     12.51%     25.07% |        7731     12.25%     37.32% |        7921     12.55%     49.88% |        7872     12.48%     62.35% |        7933     12.57%     74.93% |        7874     12.48%     87.41% |        7944     12.59%    100.00% (Unspecified)
system.caches.L2Cache_Controller.L2_Replacement_clean::total        63092                       (Unspecified)
system.caches.L2Cache_Controller.Mem_Data |      157756     12.50%     12.50% |      157747     12.50%     25.00% |      157608     12.49%     37.50% |      157697     12.50%     49.99% |      157658     12.49%     62.49% |      157804     12.51%     74.99% |      157722     12.50%     87.49% |      157787     12.51%    100.00% (Unspecified)
system.caches.L2Cache_Controller.Mem_Data::total      1261779                       (Unspecified)
system.caches.L2Cache_Controller.Mem_Ack |      141373     12.50%     12.50% |      141363     12.50%     25.01% |      141225     12.49%     37.50% |      141313     12.50%     49.99% |      141274     12.49%     62.49% |      141421     12.51%     74.99% |      141339     12.50%     87.49% |      141403     12.51%    100.00% (Unspecified)
system.caches.L2Cache_Controller.Mem_Ack::total      1130711                       (Unspecified)
system.caches.L2Cache_Controller.WB_Data |        7574     12.66%     12.66% |        7408     12.38%     25.04% |        7282     12.17%     37.21% |        7483     12.51%     49.71% |        7438     12.43%     62.14% |        7567     12.65%     74.79% |        7537     12.60%     87.39% |        7547     12.61%    100.00% (Unspecified)
system.caches.L2Cache_Controller.WB_Data::total        59836                       (Unspecified)
system.caches.L2Cache_Controller.WB_Data_clean |          74     17.70%     17.70% |          60     14.35%     32.06% |          60     14.35%     46.41% |          48     11.48%     57.89% |          44     10.53%     68.42% |          43     10.29%     78.71% |          40      9.57%     88.28% |          49     11.72%    100.00% (Unspecified)
system.caches.L2Cache_Controller.WB_Data_clean::total          418                       (Unspecified)
system.caches.L2Cache_Controller.Ack     |        1610     13.37%     13.37% |        1572     13.05%     26.42% |        1469     12.20%     38.61% |        1307     10.85%     49.46% |        1452     12.05%     61.52% |        1601     13.29%     74.81% |        1528     12.69%     87.50% |        1506     12.50%    100.00% (Unspecified)
system.caches.L2Cache_Controller.Ack::total        12045                       (Unspecified)
system.caches.L2Cache_Controller.Ack_all |         522     12.57%     12.57% |         576     13.87%     26.43% |         508     12.23%     38.66% |         475     11.43%     50.10% |         525     12.64%     62.73% |         503     12.11%     74.84% |         517     12.45%     87.29% |         528     12.71%    100.00% (Unspecified)
system.caches.L2Cache_Controller.Ack_all::total         4154                       (Unspecified)
system.caches.L2Cache_Controller.Unblock |         216     19.91%     19.91% |         128     11.80%     31.71% |         122     11.24%     42.95% |          95      8.76%     51.71% |         121     11.15%     62.86% |         117     10.78%     73.64% |         165     15.21%     88.85% |         121     11.15%    100.00% (Unspecified)
system.caches.L2Cache_Controller.Unblock::total         1085                       (Unspecified)
system.caches.L2Cache_Controller.Exclusive_Unblock |      162716     12.52%     12.52% |      162567     12.50%     25.02% |      162382     12.49%     37.51% |      162473     12.50%     50.00% |      162446     12.49%     62.50% |      162522     12.50%     75.00% |      162522     12.50%     87.50% |      162521     12.50%    100.00% (Unspecified)
system.caches.L2Cache_Controller.Exclusive_Unblock::total      1300149                       (Unspecified)
system.caches.L2Cache_Controller.NP.L1_GET_INSTR |         276     11.78%     11.78% |         295     12.59%     24.37% |         279     11.91%     36.28% |         274     11.69%     47.97% |         290     12.38%     60.35% |         318     13.57%     73.92% |         314     13.40%     87.32% |         297     12.68%    100.00% (Unspecified)
system.caches.L2Cache_Controller.NP.L1_GET_INSTR::total         2343                       (Unspecified)
system.caches.L2Cache_Controller.NP.L1_GETS |        1361     12.63%     12.63% |        1349     12.51%     25.14% |        1346     12.49%     37.63% |        1374     12.75%     50.37% |        1318     12.23%     62.60% |        1300     12.06%     74.66% |        1302     12.08%     86.73% |        1430     13.27%    100.00% (Unspecified)
system.caches.L2Cache_Controller.NP.L1_GETS::total        10780                       (Unspecified)
system.caches.L2Cache_Controller.NP.L1_GETX |      156120     12.50%     12.50% |      156103     12.50%     25.00% |      155984     12.49%     37.50% |      156050     12.50%     49.99% |      156050     12.50%     62.49% |      156187     12.51%     75.00% |      156107     12.50%     87.50% |      156060     12.50%    100.00% (Unspecified)
system.caches.L2Cache_Controller.NP.L1_GETX::total      1248661                       (Unspecified)
system.caches.L2Cache_Controller.SS.L1_GET_INSTR |        1969     13.02%     13.02% |        2597     17.17%     30.19% |        1480      9.79%     39.98% |        2046     13.53%     53.51% |        1590     10.51%     64.03% |        1631     10.79%     74.81% |        1631     10.79%     85.60% |        2178     14.40%    100.00% (Unspecified)
system.caches.L2Cache_Controller.SS.L1_GET_INSTR::total        15122                       (Unspecified)
system.caches.L2Cache_Controller.SS.L1_GETS |        1106     23.57%     23.57% |         590     12.57%     36.15% |         540     11.51%     47.66% |         458      9.76%     57.42% |         424      9.04%     66.45% |         414      8.82%     75.28% |         558     11.89%     87.17% |         602     12.83%    100.00% (Unspecified)
system.caches.L2Cache_Controller.SS.L1_GETS::total         4692                       (Unspecified)
system.caches.L2Cache_Controller.SS.L1_GETX |           6     54.55%     54.55% |           2     18.18%     72.73% |           0      0.00%     72.73% |           2     18.18%     90.91% |           0      0.00%     90.91% |           0      0.00%     90.91% |           1      9.09%    100.00% |           0      0.00%    100.00% (Unspecified)
system.caches.L2Cache_Controller.SS.L1_GETX::total           11                       (Unspecified)
system.caches.L2Cache_Controller.SS.L1_UPGRADE |         140     20.86%     20.86% |          73     10.88%     31.74% |          61      9.09%     40.83% |          43      6.41%     47.24% |          82     12.22%     59.46% |          75     11.18%     70.64% |         124     18.48%     89.12% |          73     10.88%    100.00% (Unspecified)
system.caches.L2Cache_Controller.SS.L1_UPGRADE::total          671                       (Unspecified)
system.caches.L2Cache_Controller.SS.L2_Replacement |           6     10.17%     10.17% |           4      6.78%     16.95% |          11     18.64%     35.59% |          11     18.64%     54.24% |           6     10.17%     64.41% |           5      8.47%     72.88% |          12     20.34%     93.22% |           4      6.78%    100.00% (Unspecified)
system.caches.L2Cache_Controller.SS.L2_Replacement::total           59                       (Unspecified)
system.caches.L2Cache_Controller.SS.L2_Replacement_clean |         373     12.76%     12.76% |         373     12.76%     25.51% |         367     12.55%     38.06% |         342     11.70%     49.76% |         352     12.04%     61.80% |         381     13.03%     74.83% |         368     12.59%     87.41% |         368     12.59%    100.00% (Unspecified)
system.caches.L2Cache_Controller.SS.L2_Replacement_clean::total         2924                       (Unspecified)
system.caches.L2Cache_Controller.M.L1_GET_INSTR |          11     17.74%     17.74% |          10     16.13%     33.87% |           8     12.90%     46.77% |           3      4.84%     51.61% |           4      6.45%     58.06% |           7     11.29%     69.35% |           8     12.90%     82.26% |          11     17.74%    100.00% (Unspecified)
system.caches.L2Cache_Controller.M.L1_GET_INSTR::total           62                       (Unspecified)
system.caches.L2Cache_Controller.M.L1_GETS |         727     12.96%     12.96% |         707     12.61%     25.57% |         715     12.75%     38.32% |         697     12.43%     50.75% |         695     12.39%     63.14% |         664     11.84%     74.98% |         690     12.30%     87.29% |         713     12.71%    100.00% (Unspecified)
system.caches.L2Cache_Controller.M.L1_GETS::total         5608                       (Unspecified)
system.caches.L2Cache_Controller.M.L1_GETX |        3783     12.60%     12.60% |        3757     12.51%     25.10% |        3747     12.48%     37.58% |        3727     12.41%     49.99% |        3750     12.49%     62.48% |        3757     12.51%     74.99% |        3767     12.54%     87.53% |        3746     12.47%    100.00% (Unspecified)
system.caches.L2Cache_Controller.M.L1_GETX::total        30034                       (Unspecified)
system.caches.L2Cache_Controller.M.L2_Replacement |      133197     12.50%     12.50% |      133240     12.50%     25.00% |      133270     12.51%     37.51% |      133166     12.50%     50.00% |      133167     12.50%     62.50% |      133219     12.50%     75.00% |      133211     12.50%     87.50% |      133184     12.50%    100.00% (Unspecified)
system.caches.L2Cache_Controller.M.L2_Replacement::total      1065654                       (Unspecified)
system.caches.L2Cache_Controller.M.L2_Replacement_clean |         222     12.80%     12.80% |         207     11.93%     24.73% |         227     13.08%     37.81% |         237     13.66%     51.47% |         221     12.74%     64.21% |         206     11.87%     76.08% |         199     11.47%     87.55% |         216     12.45%    100.00% (Unspecified)
system.caches.L2Cache_Controller.M.L2_Replacement_clean::total         1735                       (Unspecified)
system.caches.L2Cache_Controller.MT.L1_GETS |         216     19.91%     19.91% |         128     11.80%     31.71% |         122     11.24%     42.95% |          95      8.76%     51.71% |         121     11.15%     62.86% |         117     10.78%     73.64% |         165     15.21%     88.85% |         121     11.15%    100.00% (Unspecified)
system.caches.L2Cache_Controller.MT.L1_GETS::total         1085                       (Unspecified)
system.caches.L2Cache_Controller.MT.L1_GETX |         592     13.29%     13.29% |         584     13.11%     26.41% |         540     12.13%     38.54% |         593     13.32%     51.85% |         556     12.49%     64.34% |         543     12.19%     76.53% |         537     12.06%     88.59% |         508     11.41%    100.00% (Unspecified)
system.caches.L2Cache_Controller.MT.L1_GETX::total         4453                       (Unspecified)
system.caches.L2Cache_Controller.MT.L1_PUTX |      147398     12.51%     12.51% |      147303     12.50%     25.01% |      147362     12.51%     37.52% |      147241     12.50%     50.01% |      147217     12.49%     62.51% |      147252     12.50%     75.01% |      147230     12.50%     87.50% |      147281     12.50%    100.00% (Unspecified)
system.caches.L2Cache_Controller.MT.L1_PUTX::total      1178284                       (Unspecified)
system.caches.L2Cache_Controller.MT.L2_Replacement |         248     13.00%     13.00% |         224     11.75%     24.75% |         213     11.17%     35.92% |         216     11.33%     47.25% |         229     12.01%     59.26% |         264     13.84%     73.10% |         242     12.69%     85.79% |         271     14.21%    100.00% (Unspecified)
system.caches.L2Cache_Controller.MT.L2_Replacement::total         1907                       (Unspecified)
system.caches.L2Cache_Controller.MT.L2_Replacement_clean |        7327     12.54%     12.54% |        7315     12.52%     25.06% |        7137     12.21%     37.27% |        7342     12.56%     49.84% |        7299     12.49%     62.33% |        7346     12.57%     74.90% |        7307     12.50%     87.40% |        7360     12.60%    100.00% (Unspecified)
system.caches.L2Cache_Controller.MT.L2_Replacement_clean::total        58433                       (Unspecified)
system.caches.L2Cache_Controller.M_I.L1_GET_INSTR |           1      3.03%      3.03% |           4     12.12%     15.15% |           4     12.12%     27.27% |           2      6.06%     33.33% |           1      3.03%     36.36% |           3      9.09%     45.45% |           9     27.27%     72.73% |           9     27.27%    100.00% (Unspecified)
system.caches.L2Cache_Controller.M_I.L1_GET_INSTR::total           33                       (Unspecified)
system.caches.L2Cache_Controller.M_I.L1_GETS |           9     12.50%     12.50% |           8     11.11%     23.61% |          10     13.89%     37.50% |          15     20.83%     58.33% |           8     11.11%     69.44% |           7      9.72%     79.17% |           7      9.72%     88.89% |           8     11.11%    100.00% (Unspecified)
system.caches.L2Cache_Controller.M_I.L1_GETS::total           72                       (Unspecified)
system.caches.L2Cache_Controller.M_I.L1_GETX |           1      5.26%      5.26% |           5     26.32%     31.58% |           0      0.00%     31.58% |           4     21.05%     52.63% |           1      5.26%     57.89% |           1      5.26%     63.16% |           4     21.05%     84.21% |           3     15.79%    100.00% (Unspecified)
system.caches.L2Cache_Controller.M_I.L1_GETX::total           19                       (Unspecified)
system.caches.L2Cache_Controller.M_I.Mem_Ack |      141373     12.50%     12.50% |      141363     12.50%     25.01% |      141225     12.49%     37.50% |      141313     12.50%     49.99% |      141274     12.49%     62.49% |      141421     12.51%     74.99% |      141339     12.50%     87.49% |      141403     12.51%    100.00% (Unspecified)
system.caches.L2Cache_Controller.M_I.Mem_Ack::total      1130711                       (Unspecified)
system.caches.L2Cache_Controller.MT_I.WB_Data |         230     12.83%     12.83% |         210     11.71%     24.54% |         200     11.15%     35.69% |         204     11.38%     47.07% |         214     11.94%     59.01% |         249     13.89%     72.89% |         229     12.77%     85.67% |         257     14.33%    100.00% (Unspecified)
system.caches.L2Cache_Controller.MT_I.WB_Data::total         1793                       (Unspecified)
system.caches.L2Cache_Controller.MT_I.Ack_all |          18     15.79%     15.79% |          14     12.28%     28.07% |          13     11.40%     39.47% |          12     10.53%     50.00% |          15     13.16%     63.16% |          15     13.16%     76.32% |          13     11.40%     87.72% |          14     12.28%    100.00% (Unspecified)
system.caches.L2Cache_Controller.MT_I.Ack_all::total          114                       (Unspecified)
system.caches.L2Cache_Controller.MCT_I.WB_Data |        7202     12.55%     12.55% |        7130     12.43%     24.98% |        7020     12.24%     37.21% |        7232     12.60%     49.82% |        7147     12.46%     62.28% |        7244     12.63%     74.90% |        7183     12.52%     87.42% |        7218     12.58%    100.00% (Unspecified)
system.caches.L2Cache_Controller.MCT_I.WB_Data::total        57376                       (Unspecified)
system.caches.L2Cache_Controller.MCT_I.Ack_all |         125     11.83%     11.83% |         185     17.50%     29.33% |         117     11.07%     40.40% |         110     10.41%     50.80% |         152     14.38%     65.18% |         102      9.65%     74.83% |         124     11.73%     86.57% |         142     13.43%    100.00% (Unspecified)
system.caches.L2Cache_Controller.MCT_I.Ack_all::total         1057                       (Unspecified)
system.caches.L2Cache_Controller.I_I.Ack |        1593     13.37%     13.37% |        1568     13.16%     26.53% |        1448     12.15%     38.68% |        1284     10.78%     49.45% |        1439     12.08%     61.53% |        1590     13.34%     74.87% |        1509     12.66%     87.54% |        1485     12.46%    100.00% (Unspecified)
system.caches.L2Cache_Controller.I_I.Ack::total        11916                       (Unspecified)
system.caches.L2Cache_Controller.I_I.Ack_all |         373     12.76%     12.76% |         373     12.76%     25.51% |         367     12.55%     38.06% |         342     11.70%     49.76% |         352     12.04%     61.80% |         381     13.03%     74.83% |         368     12.59%     87.41% |         368     12.59%    100.00% (Unspecified)
system.caches.L2Cache_Controller.I_I.Ack_all::total         2924                       (Unspecified)
system.caches.L2Cache_Controller.S_I.Ack |          17     13.18%     13.18% |           4      3.10%     16.28% |          21     16.28%     32.56% |          23     17.83%     50.39% |          13     10.08%     60.47% |          11      8.53%     68.99% |          19     14.73%     83.72% |          21     16.28%    100.00% (Unspecified)
system.caches.L2Cache_Controller.S_I.Ack::total          129                       (Unspecified)
system.caches.L2Cache_Controller.S_I.Ack_all |           6     10.17%     10.17% |           4      6.78%     16.95% |          11     18.64%     35.59% |          11     18.64%     54.24% |           6     10.17%     64.41% |           5      8.47%     72.88% |          12     20.34%     93.22% |           4      6.78%    100.00% (Unspecified)
system.caches.L2Cache_Controller.S_I.Ack_all::total           59                       (Unspecified)
system.caches.L2Cache_Controller.ISS.L1_GETS |          12     18.75%     18.75% |           8     12.50%     31.25% |          10     15.62%     46.88% |          12     18.75%     65.62% |           5      7.81%     73.44% |           3      4.69%     78.12% |           5      7.81%     85.94% |           9     14.06%    100.00% (Unspecified)
system.caches.L2Cache_Controller.ISS.L1_GETS::total           64                       (Unspecified)
system.caches.L2Cache_Controller.ISS.Mem_Data |        1349     12.59%     12.59% |        1341     12.51%     25.10% |        1336     12.47%     37.57% |        1362     12.71%     50.28% |        1313     12.25%     62.53% |        1297     12.10%     74.64% |        1297     12.10%     86.74% |        1421     13.26%    100.00% (Unspecified)
system.caches.L2Cache_Controller.ISS.Mem_Data::total        10716                       (Unspecified)
system.caches.L2Cache_Controller.IS.L1_GET_INSTR |          47      7.89%      7.89% |          54      9.06%     16.95% |          55      9.23%     26.17% |          75     12.58%     38.76% |          94     15.77%     54.53% |          94     15.77%     70.30% |          86     14.43%     84.73% |          91     15.27%    100.00% (Unspecified)
system.caches.L2Cache_Controller.IS.L1_GET_INSTR::total          596                       (Unspecified)
system.caches.L2Cache_Controller.IS.L1_GETS |          37     29.13%     29.13% |          18     14.17%     43.31% |          12      9.45%     52.76% |          21     16.54%     69.29% |           7      5.51%     74.80% |           7      5.51%     80.31% |           7      5.51%     85.83% |          18     14.17%    100.00% (Unspecified)
system.caches.L2Cache_Controller.IS.L1_GETS::total          127                       (Unspecified)
system.caches.L2Cache_Controller.IS.Mem_Data |         288     11.97%     11.97% |         303     12.59%     24.55% |         289     12.01%     36.56% |         286     11.88%     48.44% |         295     12.26%     60.70% |         321     13.34%     74.03% |         319     13.25%     87.29% |         306     12.71%    100.00% (Unspecified)
system.caches.L2Cache_Controller.IS.Mem_Data::total         2407                       (Unspecified)
system.caches.L2Cache_Controller.IM.Mem_Data |      156119     12.50%     12.50% |      156103     12.50%     25.00% |      155983     12.49%     37.50% |      156049     12.50%     49.99% |      156050     12.50%     62.49% |      156186     12.51%     75.00% |      156106     12.50%     87.50% |      156060     12.50%    100.00% (Unspecified)
system.caches.L2Cache_Controller.IM.Mem_Data::total      1248656                       (Unspecified)
system.caches.L2Cache_Controller.SS_MB.L1_GETS |           0      0.00%      0.00% |           0      0.00%      0.00% |           0      0.00%      0.00% |           0      0.00%      0.00% |           0      0.00%      0.00% |           0      0.00%      0.00% |          31     81.58%     81.58% |           7     18.42%    100.00% (Unspecified)
system.caches.L2Cache_Controller.SS_MB.L1_GETS::total           38                       (Unspecified)
system.caches.L2Cache_Controller.SS_MB.Exclusive_Unblock |         146     21.41%     21.41% |          75     11.00%     32.40% |          61      8.94%     41.35% |          45      6.60%     47.95% |          82     12.02%     59.97% |          75     11.00%     70.97% |         125     18.33%     89.30% |          73     10.70%    100.00% (Unspecified)
system.caches.L2Cache_Controller.SS_MB.Exclusive_Unblock::total          682                       (Unspecified)
system.caches.L2Cache_Controller.MT_MB.L1_GETS |           7     70.00%     70.00% |           0      0.00%     70.00% |           1     10.00%     80.00% |           2     20.00%    100.00% |           0      0.00%    100.00% |           0      0.00%    100.00% |           0      0.00%    100.00% |           0      0.00%    100.00% (Unspecified)
system.caches.L2Cache_Controller.MT_MB.L1_GETS::total           10                       (Unspecified)
system.caches.L2Cache_Controller.MT_MB.Exclusive_Unblock |      162570     12.51%     12.51% |      162492     12.50%     25.02% |      162321     12.49%     37.51% |      162428     12.50%     50.01% |      162364     12.49%     62.50% |      162447     12.50%     75.00% |      162397     12.50%     87.50% |      162448     12.50%    100.00% (Unspecified)
system.caches.L2Cache_Controller.MT_MB.Exclusive_Unblock::total      1299467                       (Unspecified)
system.caches.L2Cache_Controller.MT_IIB.L1_GETS |           9     27.27%     27.27% |           0      0.00%     27.27% |           0      0.00%     27.27% |           1      3.03%     30.30% |           0      0.00%     30.30% |           1      3.03%     33.33% |          16     48.48%     81.82% |           6     18.18%    100.00% (Unspecified)
system.caches.L2Cache_Controller.MT_IIB.L1_GETS::total           33                       (Unspecified)
system.caches.L2Cache_Controller.MT_IIB.WB_Data |         142     21.55%     21.55% |          67     10.17%     31.71% |          58      8.80%     40.52% |          44      6.68%     47.19% |          77     11.68%     58.88% |          74     11.23%     70.11% |         125     18.97%     89.07% |          72     10.93%    100.00% (Unspecified)
system.caches.L2Cache_Controller.MT_IIB.WB_Data::total          659                       (Unspecified)
system.caches.L2Cache_Controller.MT_IIB.WB_Data_clean |          74     17.70%     17.70% |          60     14.35%     32.06% |          60     14.35%     46.41% |          48     11.48%     57.89% |          44     10.53%     68.42% |          43     10.29%     78.71% |          40      9.57%     88.28% |          49     11.72%    100.00% (Unspecified)
system.caches.L2Cache_Controller.MT_IIB.WB_Data_clean::total          418                       (Unspecified)
system.caches.L2Cache_Controller.MT_IIB.Unblock |           0      0.00%      0.00% |           1     12.50%     12.50% |           4     50.00%     62.50% |           3     37.50%    100.00% |           0      0.00%    100.00% |           0      0.00%    100.00% |           0      0.00%    100.00% |           0      0.00%    100.00% (Unspecified)
system.caches.L2Cache_Controller.MT_IIB.Unblock::total            8                       (Unspecified)
system.caches.L2Cache_Controller.MT_IB.WB_Data |           0      0.00%      0.00% |           1     12.50%     12.50% |           4     50.00%     62.50% |           3     37.50%    100.00% |           0      0.00%    100.00% |           0      0.00%    100.00% |           0      0.00%    100.00% |           0      0.00%    100.00% (Unspecified)
system.caches.L2Cache_Controller.MT_IB.WB_Data::total            8                       (Unspecified)
system.caches.L2Cache_Controller.MT_SB.L1_GETS |           1     50.00%     50.00% |           0      0.00%     50.00% |           0      0.00%     50.00% |           0      0.00%     50.00% |           1     50.00%    100.00% |           0      0.00%    100.00% |           0      0.00%    100.00% |           0      0.00%    100.00% (Unspecified)
system.caches.L2Cache_Controller.MT_SB.L1_GETS::total            2                       (Unspecified)
system.caches.L2Cache_Controller.MT_SB.L1_UPGRADE |           1     14.29%     14.29% |           0      0.00%     14.29% |           0      0.00%     14.29% |           0      0.00%     14.29% |           0      0.00%     14.29% |           0      0.00%     14.29% |           6     85.71%    100.00% |           0      0.00%    100.00% (Unspecified)
system.caches.L2Cache_Controller.MT_SB.L1_UPGRADE::total            7                       (Unspecified)
system.caches.L2Cache_Controller.MT_SB.Unblock |         216     20.06%     20.06% |         127     11.79%     31.85% |         118     10.96%     42.80% |          92      8.54%     51.35% |         121     11.23%     62.58% |         117     10.86%     73.44% |         165     15.32%     88.77% |         121     11.23%    100.00% (Unspecified)
system.caches.L2Cache_Controller.MT_SB.Unblock::total         1077                       (Unspecified)
system.caches.RequestType.LD.latency_hist_seqr::bucket_size          512                       (Unspecified)
system.caches.RequestType.LD.latency_hist_seqr::max_bucket         5119                       (Unspecified)
system.caches.RequestType.LD.latency_hist_seqr::samples    261916737                       (Unspecified)
system.caches.RequestType.LD.latency_hist_seqr::mean     1.053111                       (Unspecified)
system.caches.RequestType.LD.latency_hist_seqr::gmean     1.009009                       (Unspecified)
system.caches.RequestType.LD.latency_hist_seqr::stdev     6.881603                       (Unspecified)
system.caches.RequestType.LD.latency_hist_seqr |   261907075    100.00%    100.00% |        5423      0.00%    100.00% |        3250      0.00%    100.00% |         656      0.00%    100.00% |         184      0.00%    100.00% |         130      0.00%    100.00% |          16      0.00%    100.00% |           3      0.00%    100.00% |           0      0.00%    100.00% |           0      0.00%    100.00% (Unspecified)
system.caches.RequestType.LD.latency_hist_seqr::total    261916737                       (Unspecified)
system.caches.RequestType.LD.hit_latency_hist_seqr::bucket_size            1                       (Unspecified)
system.caches.RequestType.LD.hit_latency_hist_seqr::max_bucket            9                       (Unspecified)
system.caches.RequestType.LD.hit_latency_hist_seqr::samples    261894381                       (Unspecified)
system.caches.RequestType.LD.hit_latency_hist_seqr::mean     1.012356                       (Unspecified)
system.caches.RequestType.LD.hit_latency_hist_seqr::gmean     1.008601                       (Unspecified)
system.caches.RequestType.LD.hit_latency_hist_seqr::stdev     0.110467                       (Unspecified)
system.caches.RequestType.LD.hit_latency_hist_seqr |           0      0.00%      0.00% |   258658516     98.76%     98.76% |     3235865      1.24%    100.00% |           0      0.00%    100.00% |           0      0.00%    100.00% |           0      0.00%    100.00% |           0      0.00%    100.00% |           0      0.00%    100.00% |           0      0.00%    100.00% |           0      0.00%    100.00% (Unspecified)
system.caches.RequestType.LD.hit_latency_hist_seqr::total    261894381                       (Unspecified)
system.caches.RequestType.LD.miss_latency_hist_seqr::bucket_size          512                       (Unspecified)
system.caches.RequestType.LD.miss_latency_hist_seqr::max_bucket         5119                       (Unspecified)
system.caches.RequestType.LD.miss_latency_hist_seqr::samples        22356                       (Unspecified)
system.caches.RequestType.LD.miss_latency_hist_seqr::mean   478.486402                       (Unspecified)
system.caches.RequestType.LD.miss_latency_hist_seqr::gmean   115.488706                       (Unspecified)
system.caches.RequestType.LD.miss_latency_hist_seqr::stdev   571.598509                       (Unspecified)
system.caches.RequestType.LD.miss_latency_hist_seqr |       12694     56.78%     56.78% |        5423     24.26%     81.04% |        3250     14.54%     95.58% |         656      2.93%     98.51% |         184      0.82%     99.33% |         130      0.58%     99.92% |          16      0.07%     99.99% |           3      0.01%    100.00% |           0      0.00%    100.00% |           0      0.00%    100.00% (Unspecified)
system.caches.RequestType.LD.miss_latency_hist_seqr::total        22356                       (Unspecified)
system.caches.RequestType.ST.latency_hist_seqr::bucket_size          512                       (Unspecified)
system.caches.RequestType.ST.latency_hist_seqr::max_bucket         5119                       (Unspecified)
system.caches.RequestType.ST.latency_hist_seqr::samples     45450671                       (Unspecified)
system.caches.RequestType.ST.latency_hist_seqr::mean    22.261297                       (Unspecified)
system.caches.RequestType.ST.latency_hist_seqr::gmean     1.276272                       (Unspecified)
system.caches.RequestType.ST.latency_hist_seqr::stdev   145.201594                       (Unspecified)
system.caches.RequestType.ST.latency_hist_seqr |    44632185     98.20%     98.20% |      509347      1.12%     99.32% |      245946      0.54%     99.86% |       40659      0.09%     99.95% |       14157      0.03%     99.98% |        7492      0.02%    100.00% |         788      0.00%    100.00% |          79      0.00%    100.00% |          17      0.00%    100.00% |           1      0.00%    100.00% (Unspecified)
system.caches.RequestType.ST.latency_hist_seqr::total     45450671                       (Unspecified)
system.caches.RequestType.ST.hit_latency_hist_seqr::bucket_size          256                       (Unspecified)
system.caches.RequestType.ST.hit_latency_hist_seqr::max_bucket         2559                       (Unspecified)
system.caches.RequestType.ST.hit_latency_hist_seqr::samples     44168390                       (Unspecified)
system.caches.RequestType.ST.hit_latency_hist_seqr::mean     1.094151                       (Unspecified)
system.caches.RequestType.ST.hit_latency_hist_seqr::gmean     1.066985                       (Unspecified)
system.caches.RequestType.ST.hit_latency_hist_seqr::stdev     0.788687                       (Unspecified)
system.caches.RequestType.ST.hit_latency_hist_seqr |    44168353    100.00%    100.00% |          13      0.00%    100.00% |          10      0.00%    100.00% |           3      0.00%    100.00% |           8      0.00%    100.00% |           3      0.00%    100.00% |           0      0.00%    100.00% |           0      0.00%    100.00% |           0      0.00%    100.00% |           0      0.00%    100.00% (Unspecified)
system.caches.RequestType.ST.hit_latency_hist_seqr::total     44168390                       (Unspecified)
system.caches.RequestType.ST.miss_latency_hist_seqr::bucket_size          512                       (Unspecified)
system.caches.RequestType.ST.miss_latency_hist_seqr::max_bucket         5119                       (Unspecified)
system.caches.RequestType.ST.miss_latency_hist_seqr::samples      1282281                       (Unspecified)
system.caches.RequestType.ST.miss_latency_hist_seqr::mean   751.367285                       (Unspecified)
system.caches.RequestType.ST.miss_latency_hist_seqr::gmean   609.884954                       (Unspecified)
system.caches.RequestType.ST.miss_latency_hist_seqr::stdev   447.502486                       (Unspecified)
system.caches.RequestType.ST.miss_latency_hist_seqr |      463819     36.17%     36.17% |      509334     39.72%     75.89% |      245935     19.18%     95.07% |       40659      3.17%     98.24% |       14157      1.10%     99.35% |        7492      0.58%     99.93% |         788      0.06%     99.99% |          79      0.01%    100.00% |          17      0.00%    100.00% |           1      0.00%    100.00% (Unspecified)
system.caches.RequestType.ST.miss_latency_hist_seqr::total      1282281                       (Unspecified)
system.caches.RequestType.IFETCH.latency_hist_seqr::bucket_size          512                       (Unspecified)
system.caches.RequestType.IFETCH.latency_hist_seqr::max_bucket         5119                       (Unspecified)
system.caches.RequestType.IFETCH.latency_hist_seqr::samples     76805161                       (Unspecified)
system.caches.RequestType.IFETCH.latency_hist_seqr::mean     1.017239                       (Unspecified)
system.caches.RequestType.IFETCH.latency_hist_seqr::gmean     1.000731                       (Unspecified)
system.caches.RequestType.IFETCH.latency_hist_seqr::stdev     3.177710                       (Unspecified)
system.caches.RequestType.IFETCH.latency_hist_seqr |    76804775    100.00%    100.00% |         174      0.00%    100.00% |         152      0.00%    100.00% |          45      0.00%    100.00% |          14      0.00%    100.00% |           0      0.00%    100.00% |           0      0.00%    100.00% |           1      0.00%    100.00% |           0      0.00%    100.00% |           0      0.00%    100.00% (Unspecified)
system.caches.RequestType.IFETCH.latency_hist_seqr::total     76805161                       (Unspecified)
system.caches.RequestType.IFETCH.hit_latency_hist_seqr::bucket_size            1                       (Unspecified)
system.caches.RequestType.IFETCH.hit_latency_hist_seqr::max_bucket            9                       (Unspecified)
system.caches.RequestType.IFETCH.hit_latency_hist_seqr::samples     76787038                       (Unspecified)
system.caches.RequestType.IFETCH.hit_latency_hist_seqr::mean     1.000000                       (Unspecified)
system.caches.RequestType.IFETCH.hit_latency_hist_seqr::gmean     1.000000                       (Unspecified)
system.caches.RequestType.IFETCH.hit_latency_hist_seqr::stdev     0.000114                       (Unspecified)
system.caches.RequestType.IFETCH.hit_latency_hist_seqr |           0      0.00%      0.00% |    76787037    100.00%    100.00% |           1      0.00%    100.00% |           0      0.00%    100.00% |           0      0.00%    100.00% |           0      0.00%    100.00% |           0      0.00%    100.00% |           0      0.00%    100.00% |           0      0.00%    100.00% |           0      0.00%    100.00% (Unspecified)
system.caches.RequestType.IFETCH.hit_latency_hist_seqr::total     76787038                       (Unspecified)
system.caches.RequestType.IFETCH.miss_latency_hist_seqr::bucket_size          512                       (Unspecified)
system.caches.RequestType.IFETCH.miss_latency_hist_seqr::max_bucket         5119                       (Unspecified)
system.caches.RequestType.IFETCH.miss_latency_hist_seqr::samples        18123                       (Unspecified)
system.caches.RequestType.IFETCH.miss_latency_hist_seqr::mean    74.058600                       (Unspecified)
system.caches.RequestType.IFETCH.miss_latency_hist_seqr::gmean    22.089604                       (Unspecified)
system.caches.RequestType.IFETCH.miss_latency_hist_seqr::stdev   193.546752                       (Unspecified)
system.caches.RequestType.IFETCH.miss_latency_hist_seqr |       17737     97.87%     97.87% |         174      0.96%     98.83% |         152      0.84%     99.67% |          45      0.25%     99.92% |          14      0.08%     99.99% |           0      0.00%     99.99% |           0      0.00%     99.99% |           1      0.01%    100.00% |           0      0.00%    100.00% |           0      0.00%    100.00% (Unspecified)
system.caches.RequestType.IFETCH.miss_latency_hist_seqr::total        18123                       (Unspecified)
system.caches.RequestType.RMW_Read.latency_hist_seqr::bucket_size          512                       (Unspecified)
system.caches.RequestType.RMW_Read.latency_hist_seqr::max_bucket         5119                       (Unspecified)
system.caches.RequestType.RMW_Read.latency_hist_seqr::samples        26524                       (Unspecified)
system.caches.RequestType.RMW_Read.latency_hist_seqr::mean    24.373888                       (Unspecified)
system.caches.RequestType.RMW_Read.latency_hist_seqr::gmean     1.319281                       (Unspecified)
system.caches.RequestType.RMW_Read.latency_hist_seqr::stdev   153.029242                       (Unspecified)
system.caches.RequestType.RMW_Read.latency_hist_seqr |       25967     97.90%     97.90% |         361      1.36%     99.26% |         157      0.59%     99.85% |          25      0.09%     99.95% |           9      0.03%     99.98% |           5      0.02%    100.00% |           0      0.00%    100.00% |           0      0.00%    100.00% |           0      0.00%    100.00% |           0      0.00%    100.00% (Unspecified)
system.caches.RequestType.RMW_Read.latency_hist_seqr::total        26524                       (Unspecified)
system.caches.RequestType.RMW_Read.hit_latency_hist_seqr::bucket_size          256                       (Unspecified)
system.caches.RequestType.RMW_Read.hit_latency_hist_seqr::max_bucket         2559                       (Unspecified)
system.caches.RequestType.RMW_Read.hit_latency_hist_seqr::samples        25555                       (Unspecified)
system.caches.RequestType.RMW_Read.hit_latency_hist_seqr::mean     4.521737                       (Unspecified)
system.caches.RequestType.RMW_Read.hit_latency_hist_seqr::gmean     1.088629                       (Unspecified)
system.caches.RequestType.RMW_Read.hit_latency_hist_seqr::stdev    53.514705                       (Unspecified)
system.caches.RequestType.RMW_Read.hit_latency_hist_seqr |       25434     99.53%     99.53% |          33      0.13%     99.66% |          42      0.16%     99.82% |          25      0.10%     99.92% |          14      0.05%     99.97% |           6      0.02%    100.00% |           1      0.00%    100.00% |           0      0.00%    100.00% |           0      0.00%    100.00% |           0      0.00%    100.00% (Unspecified)
system.caches.RequestType.RMW_Read.hit_latency_hist_seqr::total        25555                       (Unspecified)
system.caches.RequestType.RMW_Read.miss_latency_hist_seqr::bucket_size          512                       (Unspecified)
system.caches.RequestType.RMW_Read.miss_latency_hist_seqr::max_bucket         5119                       (Unspecified)
system.caches.RequestType.RMW_Read.miss_latency_hist_seqr::samples          969                       (Unspecified)
system.caches.RequestType.RMW_Read.miss_latency_hist_seqr::mean   547.925697                       (Unspecified)
system.caches.RequestType.RMW_Read.miss_latency_hist_seqr::gmean   209.566916                       (Unspecified)
system.caches.RequestType.RMW_Read.miss_latency_hist_seqr::stdev   530.331538                       (Unspecified)
system.caches.RequestType.RMW_Read.miss_latency_hist_seqr |         500     51.60%     51.60% |         294     30.34%     81.94% |         137     14.14%     96.08% |          24      2.48%     98.56% |           9      0.93%     99.48% |           5      0.52%    100.00% |           0      0.00%    100.00% |           0      0.00%    100.00% |           0      0.00%    100.00% |           0      0.00%    100.00% (Unspecified)
system.caches.RequestType.RMW_Read.miss_latency_hist_seqr::total          969                       (Unspecified)
system.caches.RequestType.Locked_RMW_Read.latency_hist_seqr::bucket_size          256                       (Unspecified)
system.caches.RequestType.Locked_RMW_Read.latency_hist_seqr::max_bucket         2559                       (Unspecified)
system.caches.RequestType.Locked_RMW_Read.latency_hist_seqr::samples         5008                       (Unspecified)
system.caches.RequestType.Locked_RMW_Read.latency_hist_seqr::mean    15.159944                       (Unspecified)
system.caches.RequestType.Locked_RMW_Read.latency_hist_seqr::gmean     1.493976                       (Unspecified)
system.caches.RequestType.Locked_RMW_Read.latency_hist_seqr::stdev   110.155172                       (Unspecified)
system.caches.RequestType.Locked_RMW_Read.latency_hist_seqr |        4929     98.42%     98.42% |          21      0.42%     98.84% |          30      0.60%     99.44% |           9      0.18%     99.62% |          11      0.22%     99.84% |           6      0.12%     99.96% |           0      0.00%     99.96% |           0      0.00%     99.96% |           0      0.00%     99.96% |           2      0.04%    100.00% (Unspecified)
[...]
system.o3Cpu7.iew.predictedTakenIncorrect         2580                       # Number of branches that were predicted taken incorrectly (Count)
system.o3Cpu7.iew.predictedNotTakenIncorrect         1486                       # Number of branches that were predicted not taken incorrectly (Count)
system.o3Cpu7.iew.branchMispredicts              4066                       # Number of branch mispredicts detected at execute (Count)
system.o3Cpu7.iew.instsToCommit             221967905                       # Cumulative count of insts sent to commit (Count)
system.o3Cpu7.iew.writebackCount            221967336                       # Cumulative count of insts written-back (Count)
system.o3Cpu7.iew.producerInst              200960477                       # Number of instructions producing a value (Count)
system.o3Cpu7.iew.consumerInst              351732536                       # Number of instructions consuming a value (Count)
system.o3Cpu7.iew.wbRate                     1.587947                       # Insts written-back per cycle ((Count/Cycle))
system.o3Cpu7.iew.wbFanout                   0.571345                       # Average fanout of values written-back ((Count/Count))
system.o3Cpu7.interrupts.clk_domain.clock         3200                       # Clock period in ticks (Tick)
system.o3Cpu7.lsq0.forwLoads                  3727978                       # Number of loads that had data forwarded from stores (Count)
system.o3Cpu7.lsq0.squashedLoads                13879                       # Number of loads squashed (Count)
system.o3Cpu7.lsq0.ignoredResponses               120                       # Number of memory responses ignored because the instruction is squashed (Count)
system.o3Cpu7.lsq0.memOrderViolation              819                       # Number of memory ordering violations (Count)
system.o3Cpu7.lsq0.squashedStores                9040                       # Number of stores squashed (Count)
system.o3Cpu7.lsq0.rescheduledLoads                45                       # Number of loads that were rescheduled (Count)
system.o3Cpu7.lsq0.blockedByCache                1336                       # Number of times an access to memory failed due to the cache being blocked (Count)
system.o3Cpu7.lsq0.loadToUse::samples        50433303                       # Distribution of cycle latency between the first time a load is issued and its completion (Unspecified)
system.o3Cpu7.lsq0.loadToUse::mean           3.044944                       # Distribution of cycle latency between the first time a load is issued and its completion (Unspecified)
system.o3Cpu7.lsq0.loadToUse::stdev         12.262132                       # Distribution of cycle latency between the first time a load is issued and its completion (Unspecified)
system.o3Cpu7.lsq0.loadToUse::0-9            50425951     99.99%     99.99% # Distribution of cycle latency between the first time a load is issued and its completion (Unspecified)
system.o3Cpu7.lsq0.loadToUse::10-19              1366      0.00%     99.99% # Distribution of cycle latency between the first time a load is issued and its completion (Unspecified)
system.o3Cpu7.lsq0.loadToUse::20-29               323      0.00%     99.99% # Distribution of cycle latency between the first time a load is issued and its completion (Unspecified)
system.o3Cpu7.lsq0.loadToUse::30-39               159      0.00%     99.99% # Distribution of cycle latency between the first time a load is issued and its completion (Unspecified)
system.o3Cpu7.lsq0.loadToUse::40-49               309      0.00%     99.99% # Distribution of cycle latency between the first time a load is issued and its completion (Unspecified)
system.o3Cpu7.lsq0.loadToUse::50-59                28      0.00%     99.99% # Distribution of cycle latency between the first time a load is issued and its completion (Unspecified)
system.o3Cpu7.lsq0.loadToUse::60-69                21      0.00%     99.99% # Distribution of cycle latency between the first time a load is issued and its completion (Unspecified)
system.o3Cpu7.lsq0.loadToUse::70-79                23      0.00%     99.99% # Distribution of cycle latency between the first time a load is issued and its completion (Unspecified)
system.o3Cpu7.lsq0.loadToUse::80-89                22      0.00%     99.99% # Distribution of cycle latency between the first time a load is issued and its completion (Unspecified)
system.o3Cpu7.lsq0.loadToUse::90-99                40      0.00%     99.99% # Distribution of cycle latency between the first time a load is issued and its completion (Unspecified)
system.o3Cpu7.lsq0.loadToUse::100-109              26      0.00%     99.99% # Distribution of cycle latency between the first time a load is issued and its completion (Unspecified)
system.o3Cpu7.lsq0.loadToUse::110-119              17      0.00%     99.99% # Distribution of cycle latency between the first time a load is issued and its completion (Unspecified)
system.o3Cpu7.lsq0.loadToUse::120-129               8      0.00%     99.99% # Distribution of cycle latency between the first time a load is issued and its completion (Unspecified)
system.o3Cpu7.lsq0.loadToUse::130-139              12      0.00%     99.99% # Distribution of cycle latency between the first time a load is issued and its completion (Unspecified)
system.o3Cpu7.lsq0.loadToUse::140-149              46      0.00%     99.99% # Distribution of cycle latency between the first time a load is issued and its completion (Unspecified)
system.o3Cpu7.lsq0.loadToUse::150-159              15      0.00%     99.99% # Distribution of cycle latency between the first time a load is issued and its completion (Unspecified)
system.o3Cpu7.lsq0.loadToUse::160-169               9      0.00%     99.99% # Distribution of cycle latency between the first time a load is issued and its completion (Unspecified)
system.o3Cpu7.lsq0.loadToUse::170-179               9      0.00%     99.99% # Distribution of cycle latency between the first time a load is issued and its completion (Unspecified)
system.o3Cpu7.lsq0.loadToUse::180-189               8      0.00%     99.99% # Distribution of cycle latency between the first time a load is issued and its completion (Unspecified)
system.o3Cpu7.lsq0.loadToUse::190-199              83      0.00%     99.99% # Distribution of cycle latency between the first time a load is issued and its completion (Unspecified)
system.o3Cpu7.lsq0.loadToUse::200-209               7      0.00%     99.99% # Distribution of cycle latency between the first time a load is issued and its completion (Unspecified)
system.o3Cpu7.lsq0.loadToUse::210-219               7      0.00%     99.99% # Distribution of cycle latency between the first time a load is issued and its completion (Unspecified)
system.o3Cpu7.lsq0.loadToUse::220-229               8      0.00%     99.99% # Distribution of cycle latency between the first time a load is issued and its completion (Unspecified)
system.o3Cpu7.lsq0.loadToUse::230-239               5      0.00%     99.99% # Distribution of cycle latency between the first time a load is issued and its completion (Unspecified)
system.o3Cpu7.lsq0.loadToUse::240-249              27      0.00%     99.99% # Distribution of cycle latency between the first time a load is issued and its completion (Unspecified)
system.o3Cpu7.lsq0.loadToUse::250-259               8      0.00%     99.99% # Distribution of cycle latency between the first time a load is issued and its completion (Unspecified)
system.o3Cpu7.lsq0.loadToUse::260-269               3      0.00%     99.99% # Distribution of cycle latency between the first time a load is issued and its completion (Unspecified)
system.o3Cpu7.lsq0.loadToUse::270-279               6      0.00%     99.99% # Distribution of cycle latency between the first time a load is issued and its completion (Unspecified)
system.o3Cpu7.lsq0.loadToUse::280-289               8      0.00%     99.99% # Distribution of cycle latency between the first time a load is issued and its completion (Unspecified)
system.o3Cpu7.lsq0.loadToUse::290-299              17      0.00%     99.99% # Distribution of cycle latency between the first time a load is issued and its completion (Unspecified)
system.o3Cpu7.lsq0.loadToUse::overflows          4732      0.01%    100.00% # Distribution of cycle latency between the first time a load is issued and its completion (Unspecified)
system.o3Cpu7.lsq0.loadToUse::min_value             2                       # Distribution of cycle latency between the first time a load is issued and its completion (Unspecified)
system.o3Cpu7.lsq0.loadToUse::max_value          4009                       # Distribution of cycle latency between the first time a load is issued and its completion (Unspecified)
system.o3Cpu7.lsq0.loadToUse::total          50433303                       # Distribution of cycle latency between the first time a load is issued and its completion (Unspecified)
system.o3Cpu7.mmu.dtb.rdAccesses             50442920                       # TLB accesses on read requests (Count)
system.o3Cpu7.mmu.dtb.wrAccesses              5611469                       # TLB accesses on write requests (Count)
system.o3Cpu7.mmu.dtb.rdMisses                   1220                       # TLB misses on read requests (Count)
system.o3Cpu7.mmu.dtb.wrMisses                    492                       # TLB misses on write requests (Count)
system.o3Cpu7.mmu.dtb.walker.power_state.pwrStateResidencyTicks::UNDEFINED  32485299800                       # Cumulative time (in ticks) in various power states (Tick)
system.o3Cpu7.mmu.itb.rdAccesses                    0                       # TLB accesses on read requests (Count)
system.o3Cpu7.mmu.itb.wrAccesses              9406899                       # TLB accesses on write requests (Count)
system.o3Cpu7.mmu.itb.rdMisses                      0                       # TLB misses on read requests (Count)
system.o3Cpu7.mmu.itb.wrMisses                     70                       # TLB misses on write requests (Count)
system.o3Cpu7.mmu.itb.walker.power_state.pwrStateResidencyTicks::UNDEFINED  32485299800                       # Cumulative time (in ticks) in various power states (Tick)
system.o3Cpu7.power_state.numTransitions           10                       # Number of power state transitions (Count)
system.o3Cpu7.power_state.ticksClkGated::samples            5                       # Distribution of time spent in the clock gated state (Tick)
system.o3Cpu7.power_state.ticksClkGated::mean    702945720                       # Distribution of time spent in the clock gated state (Tick)
system.o3Cpu7.power_state.ticksClkGated::stdev 406177873.889004                       # Distribution of time spent in the clock gated state (Tick)
system.o3Cpu7.power_state.ticksClkGated::1000-5e+10            5    100.00%    100.00% # Distribution of time spent in the clock gated state (Tick)
system.o3Cpu7.power_state.ticksClkGated::min_value    207524400                       # Distribution of time spent in the clock gated state (Tick)
system.o3Cpu7.power_state.ticksClkGated::max_value    999168000                       # Distribution of time spent in the clock gated state (Tick)
system.o3Cpu7.power_state.ticksClkGated::total            5                       # Distribution of time spent in the clock gated state (Tick)
system.o3Cpu7.power_state.pwrStateResidencyTicks::ON  12185273800                       # Cumulative time (in ticks) in various power states (Tick)
system.o3Cpu7.power_state.pwrStateResidencyTicks::CLK_GATED   3514728600                       # Cumulative time (in ticks) in various power states (Tick)
system.o3Cpu7.power_state.pwrStateResidencyTicks::OFF  16785297400                       # Cumulative time (in ticks) in various power states (Tick)
system.o3Cpu7.rename.squashCycles                4652                       # Number of cycles rename is squashing (Cycle)
system.o3Cpu7.rename.idleCycles               7951750                       # Number of cycles rename is idle (Cycle)
system.o3Cpu7.rename.blockCycles             35488939                       # Number of cycles rename is blocking (Cycle)
system.o3Cpu7.rename.serializeStallCycles       312226                       # count of cycles rename stalled for serializing inst (Cycle)
system.o3Cpu7.rename.runCycles               14987491                       # Number of cycles rename is running (Cycle)
system.o3Cpu7.rename.unblockCycles           80790891                       # Number of cycles rename is unblocking (Cycle)
system.o3Cpu7.rename.renamedInsts           222032749                       # Number of instructions processed by rename (Count)
system.o3Cpu7.rename.ROBFullEvents               1822                       # Number of times rename has blocked due to ROB full (Count)
system.o3Cpu7.rename.IQFullEvents             2194572                       # Number of times rename has blocked due to IQ full (Count)
system.o3Cpu7.rename.LQFullEvents             1714035                       # Number of times rename has blocked due to LQ full (Count)
system.o3Cpu7.rename.SQFullEvents            76448031                       # Number of times rename has blocked due to SQ full (Count)
system.o3Cpu7.rename.renamedOperands        242601010                       # Number of destination operands rename has renamed (Count)
system.o3Cpu7.rename.lookups                577008422                       # Number of register rename lookups that rename has made (Count)
system.o3Cpu7.rename.intLookups              86311827                       # Number of integer rename lookups (Count)
system.o3Cpu7.rename.fpLookups              314948318                       # Number of floating rename lookups (Count)
system.o3Cpu7.rename.committedMaps          242422396                       # Number of HB maps that are committed (Count)
system.o3Cpu7.rename.undoneMaps                178388                       # Number of HB maps that are undone due to squashing (Count)
system.o3Cpu7.rename.serializing                 1868                       # count of serializing insts renamed (Count)
system.o3Cpu7.rename.tempSerializing             1940                       # count of temporary serializing insts renamed (Count)
system.o3Cpu7.rename.skidInsts               25681014                       # count of insts added to the skid buffer (Count)
system.o3Cpu7.rob.reads                     353995987                       # The number of ROB reads (Count)
system.o3Cpu7.rob.writes                    444041027                       # The number of ROB writes (Count)
system.o3Cpu7.thread_0.numInsts             106067260                       # Number of Instructions committed (Count)
system.o3Cpu7.thread_0.numOps               221911968                       # Number of Ops committed (Count)
system.o3Cpu7.thread_0.numMemRefs                   0                       # Number of Memory References (Count)
system.pc.bad_addr.power_state.pwrStateResidencyTicks::UNDEFINED  32485299800                       # Cumulative time (in ticks) in various power states (Tick)
system.pc.com_1.power_state.pwrStateResidencyTicks::UNDEFINED  32485299800                       # Cumulative time (in ticks) in various power states (Tick)
system.pc.default_bus.power_state.pwrStateResidencyTicks::UNDEFINED  32485299800                       # Cumulative time (in ticks) in various power states (Tick)
system.pc.empty_isa.power_state.pwrStateResidencyTicks::UNDEFINED  32485299800                       # Cumulative time (in ticks) in various power states (Tick)
system.pc.fake_com_2.power_state.pwrStateResidencyTicks::UNDEFINED  32485299800                       # Cumulative time (in ticks) in various power states (Tick)
system.pc.fake_com_3.power_state.pwrStateResidencyTicks::UNDEFINED  32485299800                       # Cumulative time (in ticks) in various power states (Tick)
system.pc.fake_com_4.power_state.pwrStateResidencyTicks::UNDEFINED  32485299800                       # Cumulative time (in ticks) in various power states (Tick)
system.pc.fake_floppy.power_state.pwrStateResidencyTicks::UNDEFINED  32485299800                       # Cumulative time (in ticks) in various power states (Tick)
system.pc.pci_host.power_state.pwrStateResidencyTicks::UNDEFINED  32485299800                       # Cumulative time (in ticks) in various power states (Tick)
system.pc.south_bridge.cmos.power_state.pwrStateResidencyTicks::UNDEFINED  32485299800                       # Cumulative time (in ticks) in various power states (Tick)
system.pc.south_bridge.dma1.power_state.pwrStateResidencyTicks::UNDEFINED  32485299800                       # Cumulative time (in ticks) in various power states (Tick)
system.pc.south_bridge.ide.disks0.IdeDisk.dmaReadFullPages            0                       # Number of full page size DMA reads (not PRD). (Count)
system.pc.south_bridge.ide.disks0.IdeDisk.dmaReadBytes            0                       # Number of bytes transfered via DMA reads (not PRD). (Byte)
system.pc.south_bridge.ide.disks0.IdeDisk.dmaReadTxs            0                       # Number of DMA read transactions (not PRD). (Count)
system.pc.south_bridge.ide.disks0.IdeDisk.dmaWriteFullPages            0                       # Number of full page size DMA writes. (Count)
system.pc.south_bridge.ide.disks0.IdeDisk.dmaWriteBytes            0                       # Number of bytes transfered via DMA writes. (Byte)
system.pc.south_bridge.ide.disks0.IdeDisk.dmaWriteTxs            0                       # Number of DMA write transactions. (Count)
system.pc.south_bridge.ide.disks1.IdeDisk.dmaReadFullPages            0                       # Number of full page size DMA reads (not PRD). (Count)
system.pc.south_bridge.ide.disks1.IdeDisk.dmaReadBytes            0                       # Number of bytes transfered via DMA reads (not PRD). (Byte)
system.pc.south_bridge.ide.disks1.IdeDisk.dmaReadTxs            0                       # Number of DMA read transactions (not PRD). (Count)
system.pc.south_bridge.ide.disks1.IdeDisk.dmaWriteFullPages            0                       # Number of full page size DMA writes. (Count)
system.pc.south_bridge.ide.disks1.IdeDisk.dmaWriteBytes            0                       # Number of bytes transfered via DMA writes. (Byte)
system.pc.south_bridge.ide.disks1.IdeDisk.dmaWriteTxs            0                       # Number of DMA write transactions. (Count)
system.pc.south_bridge.ide.power_state.pwrStateResidencyTicks::UNDEFINED  32485299800                       # Cumulative time (in ticks) in various power states (Tick)
system.pc.south_bridge.io_apic.power_state.pwrStateResidencyTicks::UNDEFINED  32485299800                       # Cumulative time (in ticks) in various power states (Tick)
system.pc.south_bridge.keyboard.power_state.pwrStateResidencyTicks::UNDEFINED  32485299800                       # Cumulative time (in ticks) in various power states (Tick)
system.pc.south_bridge.pic1.power_state.pwrStateResidencyTicks::UNDEFINED  32485299800                       # Cumulative time (in ticks) in various power states (Tick)
system.pc.south_bridge.pic2.power_state.pwrStateResidencyTicks::UNDEFINED  32485299800                       # Cumulative time (in ticks) in various power states (Tick)
system.pc.south_bridge.pit.power_state.pwrStateResidencyTicks::UNDEFINED  32485299800                       # Cumulative time (in ticks) in various power states (Tick)
system.pc.south_bridge.speaker.power_state.pwrStateResidencyTicks::UNDEFINED  32485299800                       # Cumulative time (in ticks) in various power states (Tick)
system.workload.inst.arm                            0                       # number of arm instructions executed (Count)
system.workload.inst.quiesce                        0                       # number of quiesce instructions executed (Count)

---------- End Simulation Statistics   ----------
