
---------- Begin Simulation Statistics ----------
simSeconds                                   0.088046                       # Number of seconds simulated (Second)
simTicks                                  88045910040                       # Number of ticks simulated (Tick)
finalTick                                21757340724800                       # Number of ticks from beginning of simulation (restored from checkpoints and never reset) (Tick)
simFreq                                  1000000000000                       # The number of ticks per simulated second ((Tick/Second))
hostSeconds                                  10409.61                       # Real time elapsed on the host (Second)
hostTickRate                                  8458137                       # The number of ticks simulated per host second (ticks/s) ((Tick/Second))
hostMemory                                   19901564                       # Number of bytes of host memory used (Byte)
simInsts                                     63750471                       # Number of instructions simulated (Count)
simOps                                      104272834                       # Number of ops (including micro ops) simulated (Count)
hostInstRate                                     6124                       # Simulator instruction rate (inst/s) ((Count/Second))
hostOpRate                                      10017                       # Simulator op (including micro ops) rate (op/s) ((Count/Second))
system.caches.delayHistogram::bucket_size            8                       # delay histogram for all message (Unspecified)
system.caches.delayHistogram::max_bucket           79                       # delay histogram for all message (Unspecified)
system.caches.delayHistogram::samples        38946585                       # delay histogram for all message (Unspecified)
system.caches.delayHistogram::mean           0.681020                       # delay histogram for all message (Unspecified)
system.caches.delayHistogram::stdev          2.237026                       # delay histogram for all message (Unspecified)
system.caches.delayHistogram             |    36065565     92.60%     92.60% |     2843880      7.30%     99.90% |       36605      0.09%    100.00% |         483      0.00%    100.00% |          37      0.00%    100.00% |           5      0.00%    100.00% |           1      0.00%    100.00% |           8      0.00%    100.00% |           1      0.00%    100.00% |           0      0.00%    100.00% # delay histogram for all message (Unspecified)
system.caches.delayHistogram::total          38946585                       # delay histogram for all message (Unspecified)
system.caches.m_outstandReqHistSeqr::bucket_size            2                       (Unspecified)
system.caches.m_outstandReqHistSeqr::max_bucket           19                       (Unspecified)
system.caches.m_outstandReqHistSeqr::samples     38042248                       (Unspecified)
system.caches.m_outstandReqHistSeqr::mean     4.086112                       (Unspecified)
system.caches.m_outstandReqHistSeqr::gmean     2.624522                       (Unspecified)
system.caches.m_outstandReqHistSeqr::stdev     3.891905                       (Unspecified)
system.caches.m_outstandReqHistSeqr      |    15426144     40.55%     40.55% |     7342595     19.30%     59.85% |     4073695     10.71%     70.56% |     3880066     10.20%     80.76% |     2462832      6.47%     87.23% |     2581013      6.78%     94.02% |     1019530      2.68%     96.70% |      525509      1.38%     98.08% |      730864      1.92%    100.00% |           0      0.00%    100.00% (Unspecified)
system.caches.m_outstandReqHistSeqr::total     38042248                       (Unspecified)
system.caches.m_latencyHistSeqr::bucket_size          512                       (Unspecified)
system.caches.m_latencyHistSeqr::max_bucket         5119                       (Unspecified)
system.caches.m_latencyHistSeqr::samples     38051622                       (Unspecified)
system.caches.m_latencyHistSeqr::mean      166.337647                       (Unspecified)
system.caches.m_latencyHistSeqr::gmean       2.775527                       (Unspecified)
system.caches.m_latencyHistSeqr::stdev     455.067204                       (Unspecified)
system.caches.m_latencyHistSeqr          |    32732938     86.02%     86.02% |     2722664      7.16%     93.18% |     1401359      3.68%     96.86% |      813662      2.14%     99.00% |      211444      0.56%     99.55% |      118525      0.31%     99.87% |       46100      0.12%     99.99% |        4527      0.01%    100.00% |         358      0.00%    100.00% |          45      0.00%    100.00% (Unspecified)
system.caches.m_latencyHistSeqr::total       38051622                       (Unspecified)
system.caches.m_hitLatencyHistSeqr::bucket_size          512                       (Unspecified)
system.caches.m_hitLatencyHistSeqr::max_bucket         5119                       (Unspecified)
system.caches.m_hitLatencyHistSeqr::samples     32430138                       (Unspecified)
system.caches.m_hitLatencyHistSeqr::mean     1.019335                       (Unspecified)
system.caches.m_hitLatencyHistSeqr::gmean     1.004870                       (Unspecified)
system.caches.m_hitLatencyHistSeqr::stdev     3.699897                       (Unspecified)
system.caches.m_hitLatencyHistSeqr       |    32429771    100.00%    100.00% |         245      0.00%    100.00% |          83      0.00%    100.00% |          24      0.00%    100.00% |          10      0.00%    100.00% |           4      0.00%    100.00% |           1      0.00%    100.00% |           0      0.00%    100.00% |           0      0.00%    100.00% |           0      0.00%    100.00% (Unspecified)
system.caches.m_hitLatencyHistSeqr::total     32430138                       (Unspecified)
system.caches.m_missLatencyHistSeqr::bucket_size          512                       (Unspecified)
system.caches.m_missLatencyHistSeqr::max_bucket         5119                       (Unspecified)
system.caches.m_missLatencyHistSeqr::samples      5621484                       (Unspecified)
system.caches.m_missLatencyHistSeqr::mean  1120.053014                       (Unspecified)
system.caches.m_missLatencyHistSeqr::gmean   974.580802                       (Unspecified)
system.caches.m_missLatencyHistSeqr::stdev   578.308021                       (Unspecified)
system.caches.m_missLatencyHistSeqr      |      303167      5.39%      5.39% |     2722419     48.43%     53.82% |     1401276     24.93%     78.75% |      813638     14.47%     93.22% |      211434      3.76%     96.98% |      118521      2.11%     99.09% |       46099      0.82%     99.91% |        4527      0.08%     99.99% |         358      0.01%    100.00% |          45      0.00%    100.00% (Unspecified)
system.caches.m_missLatencyHistSeqr::total      5621484                       (Unspecified)
system.caches.delayVCHist.vnet_0::bucket_size            8                       # delay histogram for vnet_0 (Unspecified)
system.caches.delayVCHist.vnet_0::max_bucket           79                       # delay histogram for vnet_0 (Unspecified)
system.caches.delayVCHist.vnet_0::samples     16672488                       # delay histogram for vnet_0 (Unspecified)
system.caches.delayVCHist.vnet_0::mean       1.573059                       # delay histogram for vnet_0 (Unspecified)
system.caches.delayVCHist.vnet_0::stdev      3.193943                       # delay histogram for vnet_0 (Unspecified)
system.caches.delayVCHist.vnet_0         |    13795457     82.74%     82.74% |     2840044     17.03%     99.78% |       36473      0.22%    100.00% |         465      0.00%    100.00% |          34      0.00%    100.00% |           5      0.00%    100.00% |           1      0.00%    100.00% |           8      0.00%    100.00% |           1      0.00%    100.00% |           0      0.00%    100.00% # delay histogram for vnet_0 (Unspecified)
system.caches.delayVCHist.vnet_0::total      16672488                       # delay histogram for vnet_0 (Unspecified)
system.caches.delayVCHist.vnet_1::bucket_size            4                       # delay histogram for vnet_1 (Unspecified)
system.caches.delayVCHist.vnet_1::max_bucket           39                       # delay histogram for vnet_1 (Unspecified)
system.caches.delayVCHist.vnet_1::samples     22195948                       # delay histogram for vnet_1 (Unspecified)
system.caches.delayVCHist.vnet_1::mean       0.013362                       # delay histogram for vnet_1 (Unspecified)
system.caches.delayVCHist.vnet_1::stdev      0.270316                       # delay histogram for vnet_1 (Unspecified)
system.caches.delayVCHist.vnet_1         |    22149608     99.79%     99.79% |       42351      0.19%     99.98% |        3495      0.02%    100.00% |         341      0.00%    100.00% |          99      0.00%    100.00% |          33      0.00%    100.00% |          11      0.00%    100.00% |           7      0.00%    100.00% |           2      0.00%    100.00% |           1      0.00%    100.00% # delay histogram for vnet_1 (Unspecified)
system.caches.delayVCHist.vnet_1::total      22195948                       # delay histogram for vnet_1 (Unspecified)
system.caches.delayVCHist.vnet_2::bucket_size            1                       # delay histogram for vnet_2 (Unspecified)
system.caches.delayVCHist.vnet_2::max_bucket            9                       # delay histogram for vnet_2 (Unspecified)
system.caches.delayVCHist.vnet_2::samples        78149                       # delay histogram for vnet_2 (Unspecified)
system.caches.delayVCHist.vnet_2::mean       0.000179                       # delay histogram for vnet_2 (Unspecified)
system.caches.delayVCHist.vnet_2::stdev      0.018928                       # delay histogram for vnet_2 (Unspecified)
system.caches.delayVCHist.vnet_2         |       78142     99.99%     99.99% |           0      0.00%     99.99% |           7      0.01%    100.00% |           0      0.00%    100.00% |           0      0.00%    100.00% |           0      0.00%    100.00% |           0      0.00%    100.00% |           0      0.00%    100.00% |           0      0.00%    100.00% |           0      0.00%    100.00% # delay histogram for vnet_2 (Unspecified)
system.caches.delayVCHist.vnet_2::total         78149                       # delay histogram for vnet_2 (Unspecified)
system.caches.L1Cache_Controller.Load    |      852689     12.99%     12.99% |      802285     12.22%     25.21% |      845933     12.89%     38.10% |      807913     12.31%     50.41% |      794924     12.11%     62.52% |      828341     12.62%     75.14% |      805802     12.28%     87.42% |      825657     12.58%    100.00% (Unspecified)
system.caches.L1Cache_Controller.Load::total      6563544                       (Unspecified)
system.caches.L1Cache_Controller.Ifetch  |     1102880     13.73%     13.73% |      914096     11.38%     25.11% |     1106070     13.77%     38.89% |      989444     12.32%     51.21% |      903962     11.26%     62.46% |     1051340     13.09%     75.55% |      941157     11.72%     87.27% |     1022187     12.73%    100.00% (Unspecified)
system.caches.L1Cache_Controller.Ifetch::total      8031136                       (Unspecified)
system.caches.L1Cache_Controller.Store   |     2990279     12.75%     12.75% |     2881162     12.28%     25.03% |     2981252     12.71%     37.74% |     2916318     12.43%     50.17% |     2890632     12.32%     62.50% |     2963082     12.63%     75.13% |     2894674     12.34%     87.47% |     2939562     12.53%    100.00% (Unspecified)
system.caches.L1Cache_Controller.Store::total     23456961                       (Unspecified)
system.caches.L1Cache_Controller.Inv     |        9332     12.15%     12.15% |        8483     11.05%     23.20% |        9865     12.85%     36.04% |        7449      9.70%     45.74% |       12164     15.84%     61.58% |       10203     13.29%     74.86% |        7625      9.93%     84.79% |       11679     15.21%    100.00% (Unspecified)
system.caches.L1Cache_Controller.Inv::total        76800                       (Unspecified)
system.caches.L1Cache_Controller.L1_Replacement |      699419     12.68%     12.68% |      683630     12.39%     25.08% |      692279     12.55%     37.63% |      686048     12.44%     50.07% |      687414     12.46%     62.53% |      692598     12.56%     75.09% |      685023     12.42%     87.51% |      689122     12.49%    100.00% (Unspecified)
system.caches.L1Cache_Controller.L1_Replacement::total      5515533                       (Unspecified)
system.caches.L1Cache_Controller.Fwd_GETS |         965     71.53%     71.53% |         262     19.42%     90.96% |          53      3.93%     94.89% |          20      1.48%     96.37% |          18      1.33%     97.70% |           8      0.59%     98.30% |           9      0.67%     98.96% |          14      1.04%    100.00% (Unspecified)
system.caches.L1Cache_Controller.Fwd_GETS::total         1349                       (Unspecified)
system.caches.L1Cache_Controller.Data    |           3    100.00%    100.00% |           0      0.00%    100.00% |           0      0.00%    100.00% |           0      0.00%    100.00% |           0      0.00%    100.00% |           0      0.00%    100.00% |           0      0.00%    100.00% |           0      0.00%    100.00% (Unspecified)
system.caches.L1Cache_Controller.Data::total            3                       (Unspecified)
system.caches.L1Cache_Controller.Data_Exclusive |      329688     12.42%     12.42% |      333288     12.56%     24.97% |      329135     12.40%     37.37% |      331099     12.47%     49.85% |      335654     12.64%     62.49% |      331663     12.49%     74.98% |      332725     12.53%     87.52% |      331360     12.48%    100.00% (Unspecified)
system.caches.L1Cache_Controller.Data_Exclusive::total      2654612                       (Unspecified)
system.caches.L1Cache_Controller.DataS_fromL1 |         156     11.56%     11.56% |         681     50.48%     62.05% |         299     22.16%     84.21% |          90      6.67%     90.88% |          55      4.08%     94.96% |          28      2.08%     97.03% |          19      1.41%     98.44% |          21      1.56%    100.00% (Unspecified)
system.caches.L1Cache_Controller.DataS_fromL1::total         1349                       (Unspecified)
system.caches.L1Cache_Controller.Data_all_Acks |      376334     12.69%     12.69% |      363776     12.27%     24.96% |      376996     12.71%     37.68% |      369023     12.45%     50.12% |      365775     12.34%     62.46% |      374971     12.65%     75.10% |      366375     12.36%     87.46% |      371815     12.54%    100.00% (Unspecified)
system.caches.L1Cache_Controller.Data_all_Acks::total      2965065                       (Unspecified)
system.caches.L1Cache_Controller.Ack     |        2623    100.00%    100.00% |           0      0.00%    100.00% |           0      0.00%    100.00% |           0      0.00%    100.00% |           0      0.00%    100.00% |           0      0.00%    100.00% |           0      0.00%    100.00% |           0      0.00%    100.00% (Unspecified)
system.caches.L1Cache_Controller.Ack::total         2623                       (Unspecified)
system.caches.L1Cache_Controller.Ack_all |         458    100.00%    100.00% |           0      0.00%    100.00% |           0      0.00%    100.00% |           0      0.00%    100.00% |           0      0.00%    100.00% |           0      0.00%    100.00% |           0      0.00%    100.00% |           0      0.00%    100.00% (Unspecified)
system.caches.L1Cache_Controller.Ack_all::total          458                       (Unspecified)
system.caches.L1Cache_Controller.WB_Ack  |      695077     12.69%     12.69% |      679756     12.41%     25.11% |      687090     12.55%     37.65% |      683275     12.48%     50.13% |      679838     12.41%     62.54% |      686965     12.54%     75.09% |      682010     12.45%     87.54% |      682264     12.46%    100.00% (Unspecified)
system.caches.L1Cache_Controller.WB_Ack::total      5476275                       (Unspecified)
system.caches.L1Cache_Controller.NP.Load |      328596     12.40%     12.40% |      332576     12.55%     24.95% |      328638     12.40%     37.35% |      330587     12.47%     49.83% |      335156     12.65%     62.47% |      331241     12.50%     74.97% |      332244     12.54%     87.51% |      330961     12.49%    100.00% (Unspecified)
system.caches.L1Cache_Controller.NP.Load::total      2649999                       (Unspecified)
system.caches.L1Cache_Controller.NP.Ifetch |        1581     17.04%     17.04% |        1144     12.33%     29.36% |        1120     12.07%     41.43% |        1147     12.36%     53.79% |        1138     12.26%     66.06% |        1127     12.14%     78.20% |        1144     12.33%     90.53% |         879      9.47%    100.00% (Unspecified)
system.caches.L1Cache_Controller.NP.Ifetch::total         9280                       (Unspecified)
system.caches.L1Cache_Controller.NP.Store |      369478     12.68%     12.68% |      358190     12.29%     24.97% |      370789     12.72%     37.69% |      362602     12.44%     50.13% |      359384     12.33%     62.46% |      368513     12.64%     75.11% |      359892     12.35%     87.46% |      365559     12.54%    100.00% (Unspecified)
system.caches.L1Cache_Controller.NP.Store::total      2914407                       (Unspecified)
system.caches.L1Cache_Controller.NP.Inv  |          53      6.42%      6.42% |          86     10.41%     16.83% |         102     12.35%     29.18% |         113     13.68%     42.86% |         120     14.53%     57.38% |         119     14.41%     71.79% |         115     13.92%     85.71% |         118     14.29%    100.00% (Unspecified)
system.caches.L1Cache_Controller.NP.Inv::total          826                       (Unspecified)
system.caches.L1Cache_Controller.I.Load  |        2166     11.85%     11.85% |        2325     12.72%     24.58% |        2328     12.74%     37.32% |        2327     12.74%     50.05% |        2304     12.61%     62.66% |        2277     12.46%     75.13% |        2302     12.60%     87.72% |        2243     12.28%    100.00% (Unspecified)
system.caches.L1Cache_Controller.I.Load::total        18272                       (Unspecified)
system.caches.L1Cache_Controller.I.Ifetch |        3724     14.78%     14.78% |        3047     12.10%     26.88% |        3082     12.24%     39.11% |        3086     12.25%     51.37% |        3049     12.10%     63.47% |        3046     12.09%     75.56% |        3073     12.20%     87.76% |        3083     12.24%    100.00% (Unspecified)
system.caches.L1Cache_Controller.I.Ifetch::total        25190                       (Unspecified)
system.caches.L1Cache_Controller.I.Store |         638     16.37%     16.37% |         464     11.90%     28.27% |         474     12.16%     40.43% |         466     11.95%     52.39% |         456     11.70%     64.08% |         460     11.80%     75.89% |         467     11.98%     87.87% |         473     12.13%    100.00% (Unspecified)
system.caches.L1Cache_Controller.I.Store::total         3898                       (Unspecified)
system.caches.L1Cache_Controller.I.L1_Replacement |        2606      9.42%      9.42% |        2451      8.86%     18.29% |        3753     13.57%     31.86% |        1336      4.83%     36.69% |        6124     22.14%     58.83% |        4186     15.14%     73.97% |        1556      5.63%     79.60% |        5643     20.40%    100.00% (Unspecified)
system.caches.L1Cache_Controller.I.L1_Replacement::total        27655                       (Unspecified)
system.caches.L1Cache_Controller.S.Load  |       29869     11.31%     11.31% |       41816     15.84%     27.15% |       35276     13.36%     40.51% |       34203     12.95%     53.46% |       31792     12.04%     65.50% |       30245     11.45%     76.95% |       30970     11.73%     88.68% |       29885     11.32%    100.00% (Unspecified)
system.caches.L1Cache_Controller.S.Load::total       264056                       (Unspecified)
system.caches.L1Cache_Controller.S.Ifetch |     1097575     13.73%     13.73% |      909905     11.38%     25.10% |     1101868     13.78%     38.88% |      985211     12.32%     51.20% |      899775     11.25%     62.46% |     1047167     13.10%     75.55% |      936940     11.72%     87.27% |     1018225     12.73%    100.00% (Unspecified)
system.caches.L1Cache_Controller.S.Ifetch::total      7996666                       (Unspecified)
system.caches.L1Cache_Controller.S.Store |         455    100.00%    100.00% |           0      0.00%    100.00% |           0      0.00%    100.00% |           0      0.00%    100.00% |           0      0.00%    100.00% |           0      0.00%    100.00% |           0      0.00%    100.00% |           0      0.00%    100.00% (Unspecified)
system.caches.L1Cache_Controller.S.Store::total          455                       (Unspecified)
system.caches.L1Cache_Controller.S.Inv   |        5041     13.42%     13.42% |        4678     12.46%     25.88% |        4674     12.45%     38.33% |        4662     12.41%     50.74% |        4598     12.24%     62.98% |        4626     12.32%     75.30% |        4632     12.33%     87.63% |        4644     12.37%    100.00% (Unspecified)
system.caches.L1Cache_Controller.S.Inv::total        37555                       (Unspecified)
system.caches.L1Cache_Controller.S.L1_Replacement |        1736     14.96%     14.96% |        1423     12.26%     27.23% |        1436     12.38%     39.60% |        1437     12.38%     51.99% |        1452     12.51%     64.50% |        1447     12.47%     76.97% |        1457     12.56%     89.53% |        1215     10.47%    100.00% (Unspecified)
system.caches.L1Cache_Controller.S.L1_Replacement::total        11603                       (Unspecified)
system.caches.L1Cache_Controller.E.Load  |      451433     13.13%     13.13% |      404206     11.76%     24.89% |      457514     13.31%     38.20% |      418708     12.18%     50.38% |      404571     11.77%     62.15% |      443607     12.90%     75.05% |      417965     12.16%     87.21% |      439634     12.79%    100.00% (Unspecified)
system.caches.L1Cache_Controller.E.Load::total      3437638                       (Unspecified)
system.caches.L1Cache_Controller.E.Store |         341     17.18%     17.18% |         233     11.74%     28.92% |         229     11.54%     40.45% |         240     12.09%     52.54% |         234     11.79%     64.33% |         235     11.84%     76.17% |         235     11.84%     88.01% |         238     11.99%    100.00% (Unspecified)
system.caches.L1Cache_Controller.E.Store::total         1985                       (Unspecified)
system.caches.L1Cache_Controller.E.Inv   |        2344     13.43%     13.43% |        2414     13.83%     27.26% |        1315      7.53%     34.79% |        1604      9.19%     43.98% |        2433     13.94%     57.92% |        1943     11.13%     69.06% |        1872     10.73%     79.78% |        3529     20.22%    100.00% (Unspecified)
system.caches.L1Cache_Controller.E.Inv::total        17454                       (Unspecified)
system.caches.L1Cache_Controller.E.L1_Replacement |      318353     12.28%     12.28% |      325550     12.56%     24.84% |      322743     12.45%     37.29% |      324361     12.51%     49.80% |      328132     12.66%     62.46% |      324615     12.52%     74.98% |      325835     12.57%     87.55% |      322702     12.45%    100.00% (Unspecified)
system.caches.L1Cache_Controller.E.L1_Replacement::total      2592291                       (Unspecified)
system.caches.L1Cache_Controller.E.Fwd_GETS |         507     56.90%     56.90% |         262     29.41%     86.31% |          53      5.95%     92.26% |          20      2.24%     94.50% |          18      2.02%     96.52% |           8      0.90%     97.42% |           9      1.01%     98.43% |          14      1.57%    100.00% (Unspecified)
system.caches.L1Cache_Controller.E.Fwd_GETS::total          891                       (Unspecified)
system.caches.L1Cache_Controller.M.Load  |       40625     20.99%     20.99% |       21362     11.04%     32.02% |       22177     11.46%     43.48% |       22088     11.41%     54.89% |       21101     10.90%     65.79% |       20971     10.83%     76.62% |       22321     11.53%     88.15% |       22932     11.85%    100.00% (Unspecified)
system.caches.L1Cache_Controller.M.Load::total       193577                       (Unspecified)
system.caches.L1Cache_Controller.M.Store |     2619367     12.75%     12.75% |     2522275     12.28%     25.04% |     2609760     12.71%     37.75% |     2553010     12.43%     50.18% |     2530558     12.32%     62.50% |     2593874     12.63%     75.13% |     2534080     12.34%     87.47% |     2573292     12.53%    100.00% (Unspecified)
system.caches.L1Cache_Controller.M.Store::total     20536216                       (Unspecified)
system.caches.L1Cache_Controller.M.Inv   |        1894      9.05%      9.05% |        1299      6.20%     15.25% |        3762     17.97%     33.22% |        1066      5.09%     38.31% |        5011     23.94%     62.25% |        3513     16.78%     79.03% |        1004      4.80%     83.83% |        3386     16.17%    100.00% (Unspecified)
system.caches.L1Cache_Controller.M.Inv::total        20935                       (Unspecified)
system.caches.L1Cache_Controller.M.L1_Replacement |      376724     13.06%     13.06% |      354206     12.28%     25.34% |      364347     12.63%     37.98% |      358914     12.45%     50.42% |      351706     12.20%     62.62% |      362350     12.56%     75.18% |      356175     12.35%     87.53% |      359562     12.47%    100.00% (Unspecified)
system.caches.L1Cache_Controller.M.L1_Replacement::total      2883984                       (Unspecified)
system.caches.L1Cache_Controller.M.Fwd_GETS |         458    100.00%    100.00% |           0      0.00%    100.00% |           0      0.00%    100.00% |           0      0.00%    100.00% |           0      0.00%    100.00% |           0      0.00%    100.00% |           0      0.00%    100.00% |           0      0.00%    100.00% (Unspecified)
system.caches.L1Cache_Controller.M.Fwd_GETS::total          458                       (Unspecified)
system.caches.L1Cache_Controller.IS.Inv  |           0      0.00%      0.00% |           6     20.00%     20.00% |          12     40.00%     60.00% |           4     13.33%     73.33% |           2      6.67%     80.00% |           2      6.67%     86.67% |           2      6.67%     93.33% |           2      6.67%    100.00% (Unspecified)
system.caches.L1Cache_Controller.IS.Inv::total           30                       (Unspecified)
system.caches.L1Cache_Controller.IS.Data_Exclusive |      329688     12.42%     12.42% |      333288     12.56%     24.97% |      329135     12.40%     37.37% |      331099     12.47%     49.85% |      335654     12.64%     62.49% |      331663     12.49%     74.98% |      332725     12.53%     87.52% |      331360     12.48%    100.00% (Unspecified)
system.caches.L1Cache_Controller.IS.Data_Exclusive::total      2654612                       (Unspecified)
system.caches.L1Cache_Controller.IS.DataS_fromL1 |         156     11.56%     11.56% |         681     50.48%     62.05% |         299     22.16%     84.21% |          90      6.67%     90.88% |          55      4.08%     94.96% |          28      2.08%     97.03% |          19      1.41%     98.44% |          21      1.56%    100.00% (Unspecified)
system.caches.L1Cache_Controller.IS.DataS_fromL1::total         1349                       (Unspecified)
system.caches.L1Cache_Controller.IS.Data_all_Acks |        6222     13.31%     13.31% |        5117     10.95%     24.26% |        5722     12.24%     36.50% |        5952     12.73%     49.24% |        5934     12.70%     61.93% |        5997     12.83%     74.76% |        6015     12.87%     87.63% |        5782     12.37%    100.00% (Unspecified)
system.caches.L1Cache_Controller.IS.Data_all_Acks::total        46741                       (Unspecified)
system.caches.L1Cache_Controller.IM.Data |           3    100.00%    100.00% |           0      0.00%    100.00% |           0      0.00%    100.00% |           0      0.00%    100.00% |           0      0.00%    100.00% |           0      0.00%    100.00% |           0      0.00%    100.00% |           0      0.00%    100.00% (Unspecified)
system.caches.L1Cache_Controller.IM.Data::total            3                       (Unspecified)
system.caches.L1Cache_Controller.IM.Data_all_Acks |      370112     12.68%     12.68% |      358653     12.29%     24.97% |      371262     12.72%     37.69% |      363067     12.44%     50.14% |      359839     12.33%     62.47% |      368972     12.64%     75.11% |      360358     12.35%     87.46% |      366031     12.54%    100.00% (Unspecified)
system.caches.L1Cache_Controller.IM.Data_all_Acks::total      2918294                       (Unspecified)
system.caches.L1Cache_Controller.SM.Ack  |        2623    100.00%    100.00% |           0      0.00%    100.00% |           0      0.00%    100.00% |           0      0.00%    100.00% |           0      0.00%    100.00% |           0      0.00%    100.00% |           0      0.00%    100.00% |           0      0.00%    100.00% (Unspecified)
system.caches.L1Cache_Controller.SM.Ack::total         2623                       (Unspecified)
system.caches.L1Cache_Controller.SM.Ack_all |         458    100.00%    100.00% |           0      0.00%    100.00% |           0      0.00%    100.00% |           0      0.00%    100.00% |           0      0.00%    100.00% |           0      0.00%    100.00% |           0      0.00%    100.00% |           0      0.00%    100.00% (Unspecified)
system.caches.L1Cache_Controller.SM.Ack_all::total          458                       (Unspecified)
system.caches.L1Cache_Controller.IS_I.Data_all_Acks |           0      0.00%      0.00% |           6     20.00%     20.00% |          12     40.00%     60.00% |           4     13.33%     73.33% |           2      6.67%     80.00% |           2      6.67%     86.67% |           2      6.67%     93.33% |           2      6.67%    100.00% (Unspecified)
system.caches.L1Cache_Controller.IS_I.Data_all_Acks::total           30                       (Unspecified)
system.caches.L1Cache_Controller.M_I.Load |           0      0.00%      0.00% |           0      0.00%      0.00% |           0      0.00%      0.00% |           0      0.00%      0.00% |           0      0.00%      0.00% |           0      0.00%      0.00% |           0      0.00%      0.00% |           2    100.00%    100.00% (Unspecified)
system.caches.L1Cache_Controller.M_I.Load::total            2                       (Unspecified)
system.caches.L1Cache_Controller.M_I.WB_Ack |      695077     12.69%     12.69% |      679756     12.41%     25.11% |      687090     12.55%     37.65% |      683275     12.48%     50.13% |      679838     12.41%     62.54% |      686965     12.54%     75.09% |      682010     12.45%     87.54% |      682264     12.46%    100.00% (Unspecified)
system.caches.L1Cache_Controller.M_I.WB_Ack::total      5476275                       (Unspecified)
system.caches.Directory_Controller.Fetch |        4816      0.09%      0.09% |     5570750     99.91%    100.00% (Unspecified)
system.caches.Directory_Controller.Fetch::total      5575566                       (Unspecified)
system.caches.Directory_Controller.Data  |         292      0.01%      0.01% |     2893193     99.99%    100.00% (Unspecified)
system.caches.Directory_Controller.Data::total      2893485                       (Unspecified)
system.caches.Directory_Controller.Memory_Data |        4816      0.09%      0.09% |     5570733     99.91%    100.00% (Unspecified)
system.caches.Directory_Controller.Memory_Data::total      5575549                       (Unspecified)
system.caches.Directory_Controller.Memory_Ack |         292      0.01%      0.01% |     2893190     99.99%    100.00% (Unspecified)
system.caches.Directory_Controller.Memory_Ack::total      2893482                       (Unspecified)
system.caches.Directory_Controller.CleanReplacement |        4569      0.18%      0.18% |     2546440     99.82%    100.00% (Unspecified)
system.caches.Directory_Controller.CleanReplacement::total      2551009                       (Unspecified)
system.caches.Directory_Controller.I.Fetch |        4816      0.09%      0.09% |     5570750     99.91%    100.00% (Unspecified)
system.caches.Directory_Controller.I.Fetch::total      5575566                       (Unspecified)
system.caches.Directory_Controller.M.Data |         292      0.01%      0.01% |     2893193     99.99%    100.00% (Unspecified)
system.caches.Directory_Controller.M.Data::total      2893485                       (Unspecified)
system.caches.Directory_Controller.M.CleanReplacement |        4569      0.18%      0.18% |     2546440     99.82%    100.00% (Unspecified)
system.caches.Directory_Controller.M.CleanReplacement::total      2551009                       (Unspecified)
system.caches.Directory_Controller.IM.Memory_Data |        4816      0.09%      0.09% |     5570733     99.91%    100.00% (Unspecified)
system.caches.Directory_Controller.IM.Memory_Data::total      5575549                       (Unspecified)
system.caches.Directory_Controller.MI.Memory_Ack |         292      0.01%      0.01% |     2893190     99.99%    100.00% (Unspecified)
system.caches.Directory_Controller.MI.Memory_Ack::total      2893482                       (Unspecified)
system.caches.L2Cache_Controller.L1_GET_INSTR |        5228     15.17%     15.17% |        5691     16.51%     31.67% |        3559     10.32%     42.00% |        2660      7.72%     49.72% |        3669     10.64%     60.36% |        3768     10.93%     71.29% |        3669     10.64%     81.93% |        6228     18.07%    100.00% (Unspecified)
system.caches.L2Cache_Controller.L1_GET_INSTR::total        34472                       (Unspecified)
system.caches.L2Cache_Controller.L1_GETS |      335429     12.57%     12.57% |      334074     12.52%     25.09% |      333198     12.49%     37.57% |      333040     12.48%     50.05% |      332848     12.47%     62.53% |      332987     12.48%     75.01% |      333423     12.49%     87.50% |      333587     12.50%    100.00% (Unspecified)
system.caches.L2Cache_Controller.L1_GETS::total      2668586                       (Unspecified)
system.caches.L2Cache_Controller.L1_GETX |      365000     12.51%     12.51% |      364784     12.50%     25.01% |      364332     12.48%     37.49% |      364650     12.50%     49.99% |      364732     12.50%     62.48% |      365101     12.51%     75.00% |      364778     12.50%     87.50% |      364932     12.50%    100.00% (Unspecified)
system.caches.L2Cache_Controller.L1_GETX::total      2918309                       (Unspecified)
system.caches.L2Cache_Controller.L1_UPGRADE |         177     35.61%     35.61% |          89     17.91%     53.52% |           0      0.00%     53.52% |           0      0.00%     53.52% |           0      0.00%     53.52% |           0      0.00%     53.52% |         231     46.48%    100.00% |           0      0.00%    100.00% (Unspecified)
system.caches.L2Cache_Controller.L1_UPGRADE::total          497                       (Unspecified)
system.caches.L2Cache_Controller.L1_PUTX |      684568     12.50%     12.50% |      684627     12.50%     25.00% |      684428     12.50%     37.50% |      684535     12.50%     50.00% |      684534     12.50%     62.50% |      684490     12.50%     75.00% |      684578     12.50%     87.50% |      684515     12.50%    100.00% (Unspecified)
system.caches.L2Cache_Controller.L1_PUTX::total      5476275                       (Unspecified)
system.caches.L2Cache_Controller.L2_Replacement |      359219     12.50%     12.50% |      359131     12.50%     25.00% |      359075     12.50%     37.50% |      359081     12.50%     50.00% |      359066     12.50%     62.50% |      359072     12.50%     75.00% |      359099     12.50%     87.50% |      359122     12.50%    100.00% (Unspecified)
system.caches.L2Cache_Controller.L2_Replacement::total      2872865                       (Unspecified)
system.caches.L2Cache_Controller.L2_Replacement_clean |      321614     12.51%     12.51% |      321522     12.50%     25.01% |      320774     12.47%     37.48% |      321153     12.49%     49.97% |      321415     12.50%     62.47% |      322035     12.52%     74.99% |      321436     12.50%     87.49% |      321680     12.51%    100.00% (Unspecified)
system.caches.L2Cache_Controller.L2_Replacement_clean::total      2571629                       (Unspecified)
system.caches.L2Cache_Controller.Mem_Data |      697215     12.50%     12.50% |      697035     12.50%     25.01% |      696232     12.49%     37.49% |      696614     12.49%     49.99% |      696861     12.50%     62.49% |      697489     12.51%     75.00% |      696917     12.50%     87.50% |      697186     12.50%    100.00% (Unspecified)
system.caches.L2Cache_Controller.Mem_Data::total      5575549                       (Unspecified)
system.caches.L2Cache_Controller.Mem_Ack |      680833     12.50%     12.50% |      680653     12.50%     25.01% |      679849     12.49%     37.49% |      680234     12.49%     49.99% |      680481     12.50%     62.49% |      681106     12.51%     75.00% |      680533     12.50%     87.50% |      680802     12.50%    100.00% (Unspecified)
system.caches.L2Cache_Controller.Mem_Ack::total      5444491                       (Unspecified)
system.caches.L2Cache_Controller.WB_Data |        2923     13.66%     13.66% |        2553     11.93%     25.60% |        2035      9.51%     35.11% |        2504     11.70%     46.81% |        2422     11.32%     58.14% |        3172     14.83%     72.96% |        2836     13.26%     86.22% |        2948     13.78%    100.00% (Unspecified)
system.caches.L2Cache_Controller.WB_Data::total        21393                       (Unspecified)
system.caches.L2Cache_Controller.WB_Data_clean |         188     21.10%     21.10% |         112     12.57%     33.67% |         135     15.15%     48.82% |         103     11.56%     60.38% |         100     11.22%     71.60% |          64      7.18%     78.79% |          66      7.41%     86.20% |         123     13.80%    100.00% (Unspecified)
system.caches.L2Cache_Controller.WB_Data_clean::total          891                       (Unspecified)
system.caches.L2Cache_Controller.Ack     |        4305     14.07%     14.07% |        3843     12.56%     26.63% |        4179     13.66%     40.29% |        3225     10.54%     50.84% |        4050     13.24%     64.07% |        3857     12.61%     76.68% |        3528     11.53%     88.21% |        3606     11.79%    100.00% (Unspecified)
system.caches.L2Cache_Controller.Ack::total        30593                       (Unspecified)
system.caches.L2Cache_Controller.Ack_all |        2965     13.09%     13.09% |        3086     13.63%     26.72% |        2716     11.99%     38.71% |        2605     11.50%     50.22% |        2955     13.05%     63.27% |        2807     12.40%     75.66% |        2751     12.15%     87.81% |        2761     12.19%    100.00% (Unspecified)
system.caches.L2Cache_Controller.Ack_all::total        22646                       (Unspecified)
system.caches.L2Cache_Controller.Unblock |         367     27.21%     27.21% |         201     14.90%     42.11% |         135     10.01%     52.11% |         103      7.64%     59.75% |         100      7.41%     67.16% |          64      4.74%     71.91% |         256     18.98%     90.88% |         123      9.12%    100.00% (Unspecified)
system.caches.L2Cache_Controller.Unblock::total         1349                       (Unspecified)
system.caches.L2Cache_Controller.Exclusive_Unblock |      697080     12.51%     12.51% |      696886     12.50%     25.01% |      695778     12.48%     37.50% |      696357     12.49%     49.99% |      696519     12.50%     62.49% |      697068     12.51%     74.99% |      696819     12.50%     87.50% |      696856     12.50%    100.00% (Unspecified)
system.caches.L2Cache_Controller.Exclusive_Unblock::total      5573363                       (Unspecified)
system.caches.L2Cache_Controller.NP.L1_GET_INSTR |         457     11.81%     11.81% |         484     12.51%     24.32% |         499     12.89%     37.21% |         400     10.34%     47.55% |         525     13.57%     61.11% |         525     13.57%     74.68% |         513     13.26%     87.93% |         467     12.07%    100.00% (Unspecified)
system.caches.L2Cache_Controller.NP.L1_GET_INSTR::total         3870                       (Unspecified)
system.caches.L2Cache_Controller.NP.L1_GETS |      331905     12.51%     12.51% |      331842     12.50%     25.01% |      331404     12.49%     37.50% |      331574     12.49%     50.00% |      331614     12.50%     62.49% |      331877     12.51%     75.00% |      331635     12.50%     87.49% |      331861     12.51%    100.00% (Unspecified)
system.caches.L2Cache_Controller.NP.L1_GETS::total      2653712                       (Unspecified)
system.caches.L2Cache_Controller.NP.L1_GETX |      364855     12.50%     12.50% |      364711     12.50%     25.00% |      364330     12.49%     37.49% |      364644     12.50%     49.98% |      364726     12.50%     62.48% |      365089     12.51%     75.00% |      364771     12.50%     87.50% |      364858     12.50%    100.00% (Unspecified)
system.caches.L2Cache_Controller.NP.L1_GETX::total      2917984                       (Unspecified)
system.caches.L2Cache_Controller.SS.L1_GET_INSTR |        4453     16.26%     16.26% |        4809     17.56%     33.82% |        2650      9.68%     43.50% |        1880      6.87%     50.37% |        2754     10.06%     60.42% |        2754     10.06%     70.48% |        2655      9.70%     80.18% |        5428     19.82%    100.00% (Unspecified)
system.caches.L2Cache_Controller.SS.L1_GET_INSTR::total        27383                       (Unspecified)
system.caches.L2Cache_Controller.SS.L1_GETS |        2918     25.79%     25.79% |        1692     14.95%     40.74% |        1453     12.84%     53.58% |        1110      9.81%     63.39% |         871      7.70%     71.09% |         851      7.52%     78.61% |        1028      9.09%     87.70% |        1392     12.30%    100.00% (Unspecified)
system.caches.L2Cache_Controller.SS.L1_GETS::total        11315                       (Unspecified)
system.caches.L2Cache_Controller.SS.L1_GETX |           2     66.67%     66.67% |           0      0.00%     66.67% |           0      0.00%     66.67% |           0      0.00%     66.67% |           0      0.00%     66.67% |           0      0.00%     66.67% |           1     33.33%    100.00% |           0      0.00%    100.00% (Unspecified)
system.caches.L2Cache_Controller.SS.L1_GETX::total            3                       (Unspecified)
system.caches.L2Cache_Controller.SS.L1_UPGRADE |         177     38.90%     38.90% |          89     19.56%     58.46% |           0      0.00%     58.46% |           0      0.00%     58.46% |           0      0.00%     58.46% |           0      0.00%     58.46% |         189     41.54%    100.00% |           0      0.00%    100.00% (Unspecified)
system.caches.L2Cache_Controller.SS.L1_UPGRADE::total          455                       (Unspecified)
system.caches.L2Cache_Controller.SS.L2_Replacement_clean |         725     13.96%     13.96% |         656     12.63%     26.60% |         704     13.56%     40.16% |         551     10.61%     50.77% |         669     12.89%     63.66% |         631     12.15%     75.81% |         592     11.40%     87.21% |         664     12.79%    100.00% (Unspecified)
system.caches.L2Cache_Controller.SS.L2_Replacement_clean::total         5192                       (Unspecified)
system.caches.L2Cache_Controller.M.L1_GET_INSTR |           1     10.00%     10.00% |           3     30.00%     40.00% |           1     10.00%     50.00% |           0      0.00%     50.00% |           0      0.00%     50.00% |           1     10.00%     60.00% |           2     20.00%     80.00% |           2     20.00%    100.00% (Unspecified)
system.caches.L2Cache_Controller.M.L1_GET_INSTR::total           10                       (Unspecified)
system.caches.L2Cache_Controller.M.L1_GETS |          73      5.70%      5.70% |         223     17.41%     23.11% |         106      8.27%     31.38% |         180     14.05%     45.43% |         212     16.55%     61.98% |         132     10.30%     72.29% |         228     17.80%     90.09% |         127      9.91%    100.00% (Unspecified)
system.caches.L2Cache_Controller.M.L1_GETS::total         1281                       (Unspecified)
system.caches.L2Cache_Controller.M.L1_GETX |         143     44.97%     44.97% |          73     22.96%     67.92% |           2      0.63%     68.55% |           6      1.89%     70.44% |           5      1.57%     72.01% |           9      2.83%     74.84% |           6      1.89%     76.73% |          74     23.27%    100.00% (Unspecified)
system.caches.L2Cache_Controller.M.L1_GETX::total          318                       (Unspecified)
system.caches.L2Cache_Controller.M.L2_Replacement |      359081     12.50%     12.50% |      359056     12.50%     25.00% |      359070     12.50%     37.50% |      359073     12.50%     50.00% |      359056     12.50%     62.50% |      359061     12.50%     75.00% |      359091     12.50%     87.50% |      359049     12.50%    100.00% (Unspecified)
system.caches.L2Cache_Controller.M.L2_Replacement::total      2872537                       (Unspecified)
system.caches.L2Cache_Controller.M.L2_Replacement_clean |      316043     12.50%     12.50% |      316047     12.50%     25.00% |      316028     12.50%     37.50% |      316052     12.50%     50.00% |      316048     12.50%     62.50% |      316067     12.50%     75.00% |      316047     12.50%     87.50% |      316044     12.50%    100.00% (Unspecified)
system.caches.L2Cache_Controller.M.L2_Replacement_clean::total      2528376                       (Unspecified)
system.caches.L2Cache_Controller.MT.L1_GETS |         367     27.21%     27.21% |         201     14.90%     42.11% |         135     10.01%     52.11% |         103      7.64%     59.75% |         100      7.41%     67.16% |          64      4.74%     71.91% |         256     18.98%     90.88% |         123      9.12%    100.00% (Unspecified)
system.caches.L2Cache_Controller.MT.L1_GETS::total         1349                       (Unspecified)
system.caches.L2Cache_Controller.MT.L1_PUTX |      684568     12.50%     12.50% |      684627     12.50%     25.00% |      684428     12.50%     37.50% |      684535     12.50%     50.00% |      684534     12.50%     62.50% |      684490     12.50%     75.00% |      684578     12.50%     87.50% |      684515     12.50%    100.00% (Unspecified)
system.caches.L2Cache_Controller.MT.L1_PUTX::total      5476275                       (Unspecified)
system.caches.L2Cache_Controller.MT.L2_Replacement |         138     42.07%     42.07% |          75     22.87%     64.94% |           5      1.52%     66.46% |           8      2.44%     68.90% |          10      3.05%     71.95% |          11      3.35%     75.30% |           8      2.44%     77.74% |          73     22.26%    100.00% (Unspecified)
system.caches.L2Cache_Controller.MT.L2_Replacement::total          328                       (Unspecified)
system.caches.L2Cache_Controller.MT.L2_Replacement_clean |        4846     12.73%     12.73% |        4819     12.66%     25.39% |        4042     10.62%     36.01% |        4550     11.95%     47.97% |        4698     12.34%     60.31% |        5337     14.02%     74.33% |        4797     12.60%     86.94% |        4972     13.06%    100.00% (Unspecified)
system.caches.L2Cache_Controller.MT.L2_Replacement_clean::total        38061                       (Unspecified)
system.caches.L2Cache_Controller.M_I.L1_GET_INSTR |           0      0.00%      0.00% |           0      0.00%      0.00% |           0      0.00%      0.00% |           0      0.00%      0.00% |           0      0.00%      0.00% |           0      0.00%      0.00% |           1     50.00%     50.00% |           1     50.00%    100.00% (Unspecified)
system.caches.L2Cache_Controller.M_I.L1_GET_INSTR::total            2                       (Unspecified)
system.caches.L2Cache_Controller.M_I.L1_GETS |           1     33.33%     33.33% |           0      0.00%     33.33% |           1     33.33%     66.67% |           0      0.00%     66.67% |           0      0.00%     66.67% |           1     33.33%    100.00% |           0      0.00%    100.00% |           0      0.00%    100.00% (Unspecified)
system.caches.L2Cache_Controller.M_I.L1_GETS::total            3                       (Unspecified)
system.caches.L2Cache_Controller.M_I.L1_GETX |           0      0.00%      0.00% |           0      0.00%      0.00% |           0      0.00%      0.00% |           0      0.00%      0.00% |           1     25.00%     25.00% |           3     75.00%    100.00% |           0      0.00%    100.00% |           0      0.00%    100.00% (Unspecified)
system.caches.L2Cache_Controller.M_I.L1_GETX::total            4                       (Unspecified)
system.caches.L2Cache_Controller.M_I.Mem_Ack |      680833     12.50%     12.50% |      680653     12.50%     25.01% |      679849     12.49%     37.49% |      680234     12.49%     49.99% |      680481     12.50%     62.49% |      681106     12.51%     75.00% |      680533     12.50%     87.50% |      680802     12.50%    100.00% (Unspecified)
system.caches.L2Cache_Controller.M_I.Mem_Ack::total      5444491                       (Unspecified)
system.caches.L2Cache_Controller.MT_I.WB_Data |         137     43.49%     43.49% |          72     22.86%     66.35% |           3      0.95%     67.30% |           5      1.59%     68.89% |           8      2.54%     71.43% |          11      3.49%     74.92% |           7      2.22%     77.14% |          72     22.86%    100.00% (Unspecified)
system.caches.L2Cache_Controller.MT_I.WB_Data::total          315                       (Unspecified)
system.caches.L2Cache_Controller.MT_I.Ack_all |           1      7.69%      7.69% |           3     23.08%     30.77% |           2     15.38%     46.15% |           3     23.08%     69.23% |           2     15.38%     84.62% |           0      0.00%     84.62% |           1      7.69%     92.31% |           1      7.69%    100.00% (Unspecified)
system.caches.L2Cache_Controller.MT_I.Ack_all::total           13                       (Unspecified)
system.caches.L2Cache_Controller.MCT_I.WB_Data |        2607     12.64%     12.64% |        2392     11.60%     24.24% |        2032      9.85%     34.10% |        2499     12.12%     46.22% |        2414     11.71%     57.92% |        3161     15.33%     73.25% |        2639     12.80%     86.05% |        2876     13.95%    100.00% (Unspecified)
system.caches.L2Cache_Controller.MCT_I.WB_Data::total        20620                       (Unspecified)
system.caches.L2Cache_Controller.MCT_I.Ack_all |        2239     12.84%     12.84% |        2427     13.92%     26.75% |        2010     11.52%     38.28% |        2051     11.76%     50.04% |        2284     13.10%     63.13% |        2176     12.48%     75.61% |        2158     12.37%     87.98% |        2096     12.02%    100.00% (Unspecified)
system.caches.L2Cache_Controller.MCT_I.Ack_all::total        17441                       (Unspecified)
system.caches.L2Cache_Controller.I_I.Ack |        4305     14.07%     14.07% |        3843     12.56%     26.63% |        4179     13.66%     40.29% |        3225     10.54%     50.84% |        4050     13.24%     64.07% |        3857     12.61%     76.68% |        3528     11.53%     88.21% |        3606     11.79%    100.00% (Unspecified)
system.caches.L2Cache_Controller.I_I.Ack::total        30593                       (Unspecified)
system.caches.L2Cache_Controller.I_I.Ack_all |         725     13.96%     13.96% |         656     12.63%     26.60% |         704     13.56%     40.16% |         551     10.61%     50.77% |         669     12.89%     63.66% |         631     12.15%     75.81% |         592     11.40%     87.21% |         664     12.79%    100.00% (Unspecified)
system.caches.L2Cache_Controller.I_I.Ack_all::total         5192                       (Unspecified)
system.caches.L2Cache_Controller.ISS.L1_GETS |          73     19.62%     19.62% |          50     13.44%     33.06% |          63     16.94%     50.00% |          42     11.29%     61.29% |          34      9.14%     70.43% |          37      9.95%     80.38% |           9      2.42%     82.80% |          64     17.20%    100.00% (Unspecified)
system.caches.L2Cache_Controller.ISS.L1_GETS::total          372                       (Unspecified)
system.caches.L2Cache_Controller.ISS.Mem_Data |      331831     12.51%     12.51% |      331790     12.50%     25.01% |      331340     12.49%     37.50% |      331530     12.49%     49.99% |      331579     12.50%     62.49% |      331839     12.51%     75.00% |      331625     12.50%     87.50% |      331797     12.50%    100.00% (Unspecified)
system.caches.L2Cache_Controller.ISS.Mem_Data::total      2653331                       (Unspecified)
system.caches.L2Cache_Controller.IS.L1_GET_INSTR |         317      9.88%      9.88% |         395     12.32%     22.20% |         409     12.75%     34.95% |         380     11.85%     46.80% |         390     12.16%     58.96% |         488     15.22%     74.18% |         498     15.53%     89.71% |         330     10.29%    100.00% (Unspecified)
system.caches.L2Cache_Controller.IS.L1_GET_INSTR::total         3207                       (Unspecified)
system.caches.L2Cache_Controller.IS.L1_GETS |          64     26.45%     26.45% |          51     21.07%     47.52% |          36     14.88%     62.40% |          30     12.40%     74.79% |          15      6.20%     80.99% |          23      9.50%     90.50% |           5      2.07%     92.56% |          18      7.44%    100.00% (Unspecified)
system.caches.L2Cache_Controller.IS.L1_GETS::total          242                       (Unspecified)
system.caches.L2Cache_Controller.IS.Mem_Data |         530     12.49%     12.49% |         534     12.59%     25.08% |         562     13.25%     38.33% |         442     10.42%     48.75% |         559     13.18%     61.93% |         562     13.25%     75.18% |         522     12.31%     87.48% |         531     12.52%    100.00% (Unspecified)
system.caches.L2Cache_Controller.IS.Mem_Data::total         4242                       (Unspecified)
system.caches.L2Cache_Controller.IM.Mem_Data |      364854     12.50%     12.50% |      364711     12.50%     25.00% |      364330     12.49%     37.49% |      364642     12.50%     49.98% |      364723     12.50%     62.48% |      365088     12.51%     75.00% |      364770     12.50%     87.50% |      364858     12.50%    100.00% (Unspecified)
system.caches.L2Cache_Controller.IM.Mem_Data::total      2917976                       (Unspecified)
system.caches.L2Cache_Controller.SS_MB.L1_GETS |           0      0.00%      0.00% |           0      0.00%      0.00% |           0      0.00%      0.00% |           0      0.00%      0.00% |           0      0.00%      0.00% |           0      0.00%      0.00% |         171    100.00%    100.00% |           0      0.00%    100.00% (Unspecified)
system.caches.L2Cache_Controller.SS_MB.L1_GETS::total          171                       (Unspecified)
system.caches.L2Cache_Controller.SS_MB.Exclusive_Unblock |         179     39.08%     39.08% |          89     19.43%     58.52% |           0      0.00%     58.52% |           0      0.00%     58.52% |           0      0.00%     58.52% |           0      0.00%     58.52% |         190     41.48%    100.00% |           0      0.00%    100.00% (Unspecified)
system.caches.L2Cache_Controller.SS_MB.Exclusive_Unblock::total          458                       (Unspecified)
system.caches.L2Cache_Controller.MT_MB.L1_GETS |           1     50.00%     50.00% |           0      0.00%     50.00% |           0      0.00%     50.00% |           0      0.00%     50.00% |           1     50.00%    100.00% |           0      0.00%    100.00% |           0      0.00%    100.00% |           0      0.00%    100.00% (Unspecified)
system.caches.L2Cache_Controller.MT_MB.L1_GETS::total            2                       (Unspecified)
system.caches.L2Cache_Controller.MT_MB.Exclusive_Unblock |      696901     12.51%     12.51% |      696797     12.50%     25.01% |      695778     12.49%     37.49% |      696357     12.50%     49.99% |      696519     12.50%     62.49% |      697068     12.51%     75.00% |      696629     12.50%     87.50% |      696856     12.50%    100.00% (Unspecified)
system.caches.L2Cache_Controller.MT_MB.Exclusive_Unblock::total      5572905                       (Unspecified)
system.caches.L2Cache_Controller.MT_IIB.L1_GETS |          24     18.46%     18.46% |          13     10.00%     28.46% |           0      0.00%     28.46% |           0      0.00%     28.46% |           1      0.77%     29.23% |           1      0.77%     30.00% |          90     69.23%     99.23% |           1      0.77%    100.00% (Unspecified)
system.caches.L2Cache_Controller.MT_IIB.L1_GETS::total          130                       (Unspecified)
system.caches.L2Cache_Controller.MT_IIB.WB_Data |         179     39.08%     39.08% |          89     19.43%     58.52% |           0      0.00%     58.52% |           0      0.00%     58.52% |           0      0.00%     58.52% |           0      0.00%     58.52% |         190     41.48%    100.00% |           0      0.00%    100.00% (Unspecified)
system.caches.L2Cache_Controller.MT_IIB.WB_Data::total          458                       (Unspecified)
system.caches.L2Cache_Controller.MT_IIB.WB_Data_clean |         188     21.10%     21.10% |         112     12.57%     33.67% |         135     15.15%     48.82% |         103     11.56%     60.38% |         100     11.22%     71.60% |          64      7.18%     78.79% |          66      7.41%     86.20% |         123     13.80%    100.00% (Unspecified)
system.caches.L2Cache_Controller.MT_IIB.WB_Data_clean::total          891                       (Unspecified)
system.caches.L2Cache_Controller.MT_SB.L1_GETS |           3     33.33%     33.33% |           2     22.22%     55.56% |           0      0.00%     55.56% |           1     11.11%     66.67% |           0      0.00%     66.67% |           1     11.11%     77.78% |           1     11.11%     88.89% |           1     11.11%    100.00% (Unspecified)
system.caches.L2Cache_Controller.MT_SB.L1_GETS::total            9                       (Unspecified)
system.caches.L2Cache_Controller.MT_SB.L1_UPGRADE |           0      0.00%      0.00% |           0      0.00%      0.00% |           0      0.00%      0.00% |           0      0.00%      0.00% |           0      0.00%      0.00% |           0      0.00%      0.00% |          42    100.00%    100.00% |           0      0.00%    100.00% (Unspecified)
system.caches.L2Cache_Controller.MT_SB.L1_UPGRADE::total           42                       (Unspecified)
system.caches.L2Cache_Controller.MT_SB.Unblock |         367     27.21%     27.21% |         201     14.90%     42.11% |         135     10.01%     52.11% |         103      7.64%     59.75% |         100      7.41%     67.16% |          64      4.74%     71.91% |         256     18.98%     90.88% |         123      9.12%    100.00% (Unspecified)
system.caches.L2Cache_Controller.MT_SB.Unblock::total         1349                       (Unspecified)
system.caches.RequestType.LD.latency_hist_seqr::bucket_size          512                       (Unspecified)
system.caches.RequestType.LD.latency_hist_seqr::max_bucket         5119                       (Unspecified)
system.caches.RequestType.LD.latency_hist_seqr::samples      6563533                       (Unspecified)
system.caches.RequestType.LD.latency_hist_seqr::mean   437.134991                       (Unspecified)
system.caches.RequestType.LD.latency_hist_seqr::gmean    16.180190                       (Unspecified)
system.caches.RequestType.LD.latency_hist_seqr::stdev   637.457679                       (Unspecified)
system.caches.RequestType.LD.latency_hist_seqr |     4045017     61.63%     61.63% |     1350088     20.57%     82.20% |      702553     10.70%     92.90% |      292598      4.46%     97.36% |      102627      1.56%     98.92% |       50582      0.77%     99.69% |       17650      0.27%     99.96% |        2190      0.03%    100.00% |         196      0.00%    100.00% |          32      0.00%    100.00% (Unspecified)
system.caches.RequestType.LD.latency_hist_seqr::total      6563533                       (Unspecified)
system.caches.RequestType.LD.hit_latency_hist_seqr::bucket_size            1                       (Unspecified)
system.caches.RequestType.LD.hit_latency_hist_seqr::max_bucket            9                       (Unspecified)
system.caches.RequestType.LD.hit_latency_hist_seqr::samples      3895271                       (Unspecified)
system.caches.RequestType.LD.hit_latency_hist_seqr::mean     1.000171                       (Unspecified)
system.caches.RequestType.LD.hit_latency_hist_seqr::gmean     1.000119                       (Unspecified)
system.caches.RequestType.LD.hit_latency_hist_seqr::stdev     0.013075                       (Unspecified)
system.caches.RequestType.LD.hit_latency_hist_seqr |           0      0.00%      0.00% |     3894605     99.98%     99.98% |         666      0.02%    100.00% |           0      0.00%    100.00% |           0      0.00%    100.00% |           0      0.00%    100.00% |           0      0.00%    100.00% |           0      0.00%    100.00% |           0      0.00%    100.00% |           0      0.00%    100.00% (Unspecified)
system.caches.RequestType.LD.hit_latency_hist_seqr::total      3895271                       (Unspecified)
system.caches.RequestType.LD.miss_latency_hist_seqr::bucket_size          512                       (Unspecified)
system.caches.RequestType.LD.miss_latency_hist_seqr::max_bucket         5119                       (Unspecified)
system.caches.RequestType.LD.miss_latency_hist_seqr::samples      2668262                       (Unspecified)
system.caches.RequestType.LD.miss_latency_hist_seqr::mean  1073.827833                       (Unspecified)
system.caches.RequestType.LD.miss_latency_hist_seqr::gmean   941.558124                       (Unspecified)
system.caches.RequestType.LD.miss_latency_hist_seqr::stdev   562.588025                       (Unspecified)
system.caches.RequestType.LD.miss_latency_hist_seqr |      149746      5.61%      5.61% |     1350088     50.60%     56.21% |      702553     26.33%     82.54% |      292598     10.97%     93.51% |      102627      3.85%     97.35% |       50582      1.90%     99.25% |       17650      0.66%     99.91% |        2190      0.08%     99.99% |         196      0.01%    100.00% |          32      0.00%    100.00% (Unspecified)
system.caches.RequestType.LD.miss_latency_hist_seqr::total      2668262                       (Unspecified)
system.caches.RequestType.ST.latency_hist_seqr::bucket_size          512                       (Unspecified)
system.caches.RequestType.ST.latency_hist_seqr::max_bucket         5119                       (Unspecified)
system.caches.RequestType.ST.latency_hist_seqr::samples     23420475                       (Unspecified)
system.caches.RequestType.ST.latency_hist_seqr::mean   147.208914                       (Unspecified)
system.caches.RequestType.ST.latency_hist_seqr::gmean     2.393799                       (Unspecified)
system.caches.RequestType.ST.latency_hist_seqr::stdev   438.363729                       (Unspecified)
system.caches.RequestType.ST.latency_hist_seqr |    20622651     88.05%     88.05% |     1371061      5.85%     93.91% |      698270      2.98%     96.89% |      520875      2.22%     99.11% |      108746      0.46%     99.58% |       67916      0.29%     99.87% |       28444      0.12%     99.99% |        2337      0.01%    100.00% |         162      0.00%    100.00% |          13      0.00%    100.00% (Unspecified)
system.caches.RequestType.ST.latency_hist_seqr::total     23420475                       (Unspecified)
system.caches.RequestType.ST.hit_latency_hist_seqr::bucket_size          256                       (Unspecified)
system.caches.RequestType.ST.hit_latency_hist_seqr::max_bucket         2559                       (Unspecified)
system.caches.RequestType.ST.hit_latency_hist_seqr::samples     20504043                       (Unspecified)
system.caches.RequestType.ST.hit_latency_hist_seqr::mean     1.015121                       (Unspecified)
system.caches.RequestType.ST.hit_latency_hist_seqr::gmean     1.007411                       (Unspecified)
system.caches.RequestType.ST.hit_latency_hist_seqr::stdev     2.193706                       (Unspecified)
system.caches.RequestType.ST.hit_latency_hist_seqr |    20503937    100.00%    100.00% |          24      0.00%    100.00% |          35      0.00%    100.00% |          13      0.00%    100.00% |          13      0.00%    100.00% |          13      0.00%    100.00% |           2      0.00%    100.00% |           4      0.00%    100.00% |           1      0.00%    100.00% |           1      0.00%    100.00% (Unspecified)
system.caches.RequestType.ST.hit_latency_hist_seqr::total     20504043                       (Unspecified)
system.caches.RequestType.ST.miss_latency_hist_seqr::bucket_size          512                       (Unspecified)
system.caches.RequestType.ST.miss_latency_hist_seqr::max_bucket         5119                       (Unspecified)
system.caches.RequestType.ST.miss_latency_hist_seqr::samples      2916432                       (Unspecified)
system.caches.RequestType.ST.miss_latency_hist_seqr::mean  1175.027775                       (Unspecified)
system.caches.RequestType.ST.miss_latency_hist_seqr::gmean  1051.301209                       (Unspecified)
system.caches.RequestType.ST.miss_latency_hist_seqr::stdev   580.052904                       (Unspecified)
system.caches.RequestType.ST.miss_latency_hist_seqr |      118690      4.07%      4.07% |     1371013     47.01%     51.08% |      698244     23.94%     75.02% |      520869     17.86%     92.88% |      108744      3.73%     96.61% |       67916      2.33%     98.94% |       28444      0.98%     99.91% |        2337      0.08%     99.99% |         162      0.01%    100.00% |          13      0.00%    100.00% (Unspecified)
system.caches.RequestType.ST.miss_latency_hist_seqr::total      2916432                       (Unspecified)
system.caches.RequestType.IFETCH.latency_hist_seqr::bucket_size          512                       (Unspecified)
system.caches.RequestType.IFETCH.latency_hist_seqr::max_bucket         5119                       (Unspecified)
system.caches.RequestType.IFETCH.latency_hist_seqr::samples      8031136                       (Unspecified)
system.caches.RequestType.IFETCH.latency_hist_seqr::mean     1.298041                       (Unspecified)
system.caches.RequestType.IFETCH.latency_hist_seqr::gmean     1.013758                       (Unspecified)
system.caches.RequestType.IFETCH.latency_hist_seqr::stdev    11.276174                       (Unspecified)
system.caches.RequestType.IFETCH.latency_hist_seqr |     8030819    100.00%    100.00% |         118      0.00%    100.00% |         107      0.00%    100.00% |          67      0.00%    100.00% |          22      0.00%    100.00% |           1      0.00%    100.00% |           2      0.00%    100.00% |           0      0.00%    100.00% |           0      0.00%    100.00% |           0      0.00%    100.00% (Unspecified)
system.caches.RequestType.IFETCH.latency_hist_seqr::total      8031136                       (Unspecified)
system.caches.RequestType.IFETCH.hit_latency_hist_seqr::bucket_size            1                       (Unspecified)
system.caches.RequestType.IFETCH.hit_latency_hist_seqr::max_bucket            9                       (Unspecified)
system.caches.RequestType.IFETCH.hit_latency_hist_seqr::samples      7996666                       (Unspecified)
system.caches.RequestType.IFETCH.hit_latency_hist_seqr::mean            1                       (Unspecified)
system.caches.RequestType.IFETCH.hit_latency_hist_seqr::gmean            1                       (Unspecified)
system.caches.RequestType.IFETCH.hit_latency_hist_seqr |           0      0.00%      0.00% |     7996666    100.00%    100.00% |           0      0.00%    100.00% |           0      0.00%    100.00% |           0      0.00%    100.00% |           0      0.00%    100.00% |           0      0.00%    100.00% |           0      0.00%    100.00% |           0      0.00%    100.00% |           0      0.00%    100.00% (Unspecified)
system.caches.RequestType.IFETCH.hit_latency_hist_seqr::total      7996666                       (Unspecified)
system.caches.RequestType.IFETCH.miss_latency_hist_seqr::bucket_size          512                       (Unspecified)
system.caches.RequestType.IFETCH.miss_latency_hist_seqr::max_bucket         5119                       (Unspecified)
system.caches.RequestType.IFETCH.miss_latency_hist_seqr::samples        34470                       (Unspecified)
system.caches.RequestType.IFETCH.miss_latency_hist_seqr::mean    70.440238                       (Unspecified)
system.caches.RequestType.IFETCH.miss_latency_hist_seqr::gmean    24.132556                       (Unspecified)
system.caches.RequestType.IFETCH.miss_latency_hist_seqr::stdev   157.558001                       (Unspecified)
system.caches.RequestType.IFETCH.miss_latency_hist_seqr |       34153     99.08%     99.08% |         118      0.34%     99.42% |         107      0.31%     99.73% |          67      0.19%     99.93% |          22      0.06%     99.99% |           1      0.00%     99.99% |           2      0.01%    100.00% |           0      0.00%    100.00% |           0      0.00%    100.00% |           0      0.00%    100.00% (Unspecified)
system.caches.RequestType.IFETCH.miss_latency_hist_seqr::total        34470                       (Unspecified)
system.caches.RequestType.RMW_Read.latency_hist_seqr::bucket_size          512                       (Unspecified)
system.caches.RequestType.RMW_Read.latency_hist_seqr::max_bucket         5119                       (Unspecified)
system.caches.RequestType.RMW_Read.latency_hist_seqr::samples        26162                       (Unspecified)
system.caches.RequestType.RMW_Read.latency_hist_seqr::mean    70.606873                       (Unspecified)
system.caches.RequestType.RMW_Read.latency_hist_seqr::gmean     1.978438                       (Unspecified)
system.caches.RequestType.RMW_Read.latency_hist_seqr::stdev   270.913134                       (Unspecified)
system.caches.RequestType.RMW_Read.latency_hist_seqr |       24411     93.31%     93.31% |        1211      4.63%     97.94% |         363      1.39%     99.32% |         107      0.41%     99.73% |          42      0.16%     99.89% |          24      0.09%     99.98% |           4      0.02%    100.00% |           0      0.00%    100.00% |           0      0.00%    100.00% |           0      0.00%    100.00% (Unspecified)
system.caches.RequestType.RMW_Read.latency_hist_seqr::total        26162                       (Unspecified)
system.caches.RequestType.RMW_Read.hit_latency_hist_seqr::bucket_size          512                       (Unspecified)
system.caches.RequestType.RMW_Read.hit_latency_hist_seqr::max_bucket         5119                       (Unspecified)
system.caches.RequestType.RMW_Read.hit_latency_hist_seqr::samples        24198                       (Unspecified)
system.caches.RequestType.RMW_Read.hit_latency_hist_seqr::mean    14.072775                       (Unspecified)
system.caches.RequestType.RMW_Read.hit_latency_hist_seqr::gmean     1.265196                       (Unspecified)
system.caches.RequestType.RMW_Read.hit_latency_hist_seqr::stdev   118.737328                       (Unspecified)
system.caches.RequestType.RMW_Read.hit_latency_hist_seqr |       23913     98.82%     98.82% |         197      0.81%     99.64% |          57      0.24%     99.87% |          18      0.07%     99.95% |           8      0.03%     99.98% |           4      0.02%    100.00% |           1      0.00%    100.00% |           0      0.00%    100.00% |           0      0.00%    100.00% |           0      0.00%    100.00% (Unspecified)
system.caches.RequestType.RMW_Read.hit_latency_hist_seqr::total        24198                       (Unspecified)
system.caches.RequestType.RMW_Read.miss_latency_hist_seqr::bucket_size          512                       (Unspecified)
system.caches.RequestType.RMW_Read.miss_latency_hist_seqr::max_bucket         5119                       (Unspecified)
system.caches.RequestType.RMW_Read.miss_latency_hist_seqr::samples         1964                       (Unspecified)
system.caches.RequestType.RMW_Read.miss_latency_hist_seqr::mean   767.150713                       (Unspecified)
system.caches.RequestType.RMW_Read.miss_latency_hist_seqr::gmean   488.181894                       (Unspecified)
system.caches.RequestType.RMW_Read.miss_latency_hist_seqr::stdev   528.695697                       (Unspecified)
system.caches.RequestType.RMW_Read.miss_latency_hist_seqr |         498     25.36%     25.36% |        1014     51.63%     76.99% |         306     15.58%     92.57% |          89      4.53%     97.10% |          34      1.73%     98.83% |          20      1.02%     99.85% |           3      0.15%    100.00% |           0      0.00%    100.00% |           0      0.00%    100.00% |           0      0.00%    100.00% (Unspecified)
system.caches.RequestType.RMW_Read.miss_latency_hist_seqr::total         1964                       (Unspecified)
system.caches.RequestType.Locked_RMW_Read.latency_hist_seqr::bucket_size          512                       (Unspecified)
system.caches.RequestType.Locked_RMW_Read.latency_hist_seqr::max_bucket         5119                       (Unspecified)
system.caches.RequestType.Locked_RMW_Read.latency_hist_seqr::samples         5158                       (Unspecified)
system.caches.RequestType.Locked_RMW_Read.latency_hist_seqr::mean    55.745444                       (Unspecified)
system.caches.RequestType.Locked_RMW_Read.latency_hist_seqr::gmean     1.554291                       (Unspecified)
system.caches.RequestType.Locked_RMW_Read.latency_hist_seqr::stdev   239.441470                       (Unspecified)
system.caches.RequestType.Locked_RMW_Read.latency_hist_seqr |        4882     94.65%     94.65% |         186      3.61%     98.26% |          66      1.28%     99.53% |          15      0.29%     99.83% |           7      0.14%     99.96% |           2      0.04%    100.00% |           0      0.00%    100.00% |           0      0.00%    100.00% |           0      0.00%    100.00% |           0      0.00%    100.00% (Unspecified)
system.caches.RequestType.Locked_RMW_Read.latency_hist_seqr::total         5158                       (Unspecified)
system.caches.RequestType.Locked_RMW_Read.hit_latency_hist_seqr::bucket_size            1                       (Unspecified)
system.caches.RequestType.Locked_RMW_Read.hit_latency_hist_seqr::max_bucket            9                       (Unspecified)
system.caches.RequestType.Locked_RMW_Read.hit_latency_hist_seqr::samples         4802                       (Unspecified)
system.caches.RequestType.Locked_RMW_Read.hit_latency_hist_seqr::mean            1                       (Unspecified)
system.caches.RequestType.Locked_RMW_Read.hit_latency_hist_seqr::gmean            1                       (Unspecified)
system.caches.RequestType.Locked_RMW_Read.hit_latency_hist_seqr |           0      0.00%      0.00% |        4802    100.00%    100.00% |           0      0.00%    100.00% |           0      0.00%    100.00% |           0      0.00%    100.00% |           0      0.00%    100.00% |           0      0.00%    100.00% |           0      0.00%    100.00% |           0      0.00%    100.00% |           0      0.00%    100.00% (Unspecified)
system.caches.RequestType.Locked_RMW_Read.hit_latency_hist_seqr::total         4802                       (Unspecified)
system.caches.RequestType.Locked_RMW_Read.miss_latency_hist_seqr::bucket_size          512                       (Unspecified)
system.caches.RequestType.Locked_RMW_Read.miss_latency_hist_seqr::max_bucket         5119                       (Unspecified)
system.caches.RequestType.Locked_RMW_Read.miss_latency_hist_seqr::samples          356                       (Unspecified)
system.caches.RequestType.Locked_RMW_Read.miss_latency_hist_seqr::mean   794.193820                       (Unspecified)
system.caches.RequestType.Locked_RMW_Read.miss_latency_hist_seqr::gmean   595.754376                       (Unspecified)
system.caches.RequestType.Locked_RMW_Read.miss_latency_hist_seqr::stdev   495.448039                       (Unspecified)
system.caches.RequestType.Locked_RMW_Read.miss_latency_hist_seqr |          80     22.47%     22.47% |         186     52.25%     74.72% |          66     18.54%     93.26% |          15      4.21%     97.47% |           7      1.97%     99.44% |           2      0.56%    100.00% |           0      0.00%    100.00% |           0      0.00%    100.00% |           0      0.00%    100.00% |           0      0.00%    100.00% (Unspecified)
system.caches.RequestType.Locked_RMW_Read.miss_latency_hist_seqr::total          356                       (Unspecified)
system.caches.RequestType.Locked_RMW_Write.latency_hist_seqr::bucket_size            1                       (Unspecified)
system.caches.RequestType.Locked_RMW_Write.latency_hist_seqr::max_bucket            9                       (Unspecified)
system.caches.RequestType.Locked_RMW_Write.latency_hist_seqr::samples         5158                       (Unspecified)
system.caches.RequestType.Locked_RMW_Write.latency_hist_seqr::mean            1                       (Unspecified)
system.caches.RequestType.Locked_RMW_Write.latency_hist_seqr::gmean            1                       (Unspecified)
system.caches.RequestType.Locked_RMW_Write.latency_hist_seqr |           0      0.00%      0.00% |        5158    100.00%    100.00% |           0      0.00%    100.00% |           0      0.00%    100.00% |           0      0.00%    100.00% |           0      0.00%    100.00% |           0      0.00%    100.00% |           0      0.00%    100.00% |           0      0.00%    100.00% |           0      0.00%    100.00% (Unspecified)
system.caches.RequestType.Locked_RMW_Write.latency_hist_seqr::total         5158                       (Unspecified)
system.caches.RequestType.Locked_RMW_Write.hit_latency_hist_seqr::bucket_size            1                       (Unspecified)
system.caches.RequestType.Locked_RMW_Write.hit_latency_hist_seqr::max_bucket            9                       (Unspecified)
system.caches.RequestType.Locked_RMW_Write.hit_latency_hist_seqr::samples         5158                       (Unspecified)
system.caches.RequestType.Locked_RMW_Write.hit_latency_hist_seqr::mean            1                       (Unspecified)
system.caches.RequestType.Locked_RMW_Write.hit_latency_hist_seqr::gmean            1                       (Unspecified)
[...]
system.o3Cpu7.iew.squashCycles                   6176                       # Number of cycles IEW is squashing (Cycle)
system.o3Cpu7.iew.blockCycles                  160765                       # Number of cycles IEW is blocking (Cycle)
system.o3Cpu7.iew.unblockCycles             233947853                       # Number of cycles IEW is unblocking (Cycle)
system.o3Cpu7.iew.dispatchedInsts            13342191                       # Number of instructions dispatched to IQ (Count)
system.o3Cpu7.iew.dispSquashedInsts              2323                       # Number of squashed instructions skipped by dispatch (Count)
system.o3Cpu7.iew.dispLoadInsts               2719018                       # Number of dispatched load instructions (Count)
system.o3Cpu7.iew.dispStoreInsts              2947506                       # Number of dispatched store instructions (Count)
system.o3Cpu7.iew.dispNonSpecInsts               3704                       # Number of dispatched non-speculative instructions (Count)
system.o3Cpu7.iew.iqFullEvents                    268                       # Number of times the IQ has become full, causing a stall (Count)
system.o3Cpu7.iew.lsqFullEvents             233935173                       # Number of times the LSQ has become full, causing a stall (Count)
system.o3Cpu7.iew.memOrderViolationEvents         1050                       # Number of memory order violations (Count)
system.o3Cpu7.iew.predictedTakenIncorrect         4079                       # Number of branches that were predicted taken incorrectly (Count)
system.o3Cpu7.iew.predictedNotTakenIncorrect         1076                       # Number of branches that were predicted not taken incorrectly (Count)
system.o3Cpu7.iew.branchMispredicts              5155                       # Number of branch mispredicts detected at execute (Count)
system.o3Cpu7.iew.instsToCommit              13270517                       # Cumulative count of insts sent to commit (Count)
system.o3Cpu7.iew.writebackCount             13270235                       # Cumulative count of insts written-back (Count)
system.o3Cpu7.iew.producerInst                6807867                       # Number of instructions producing a value (Count)
system.o3Cpu7.iew.consumerInst               12953806                       # Number of instructions consuming a value (Count)
system.o3Cpu7.iew.wbRate                     0.030144                       # Insts written-back per cycle ((Count/Cycle))
system.o3Cpu7.iew.wbFanout                   0.525550                       # Average fanout of values written-back ((Count/Count))
system.o3Cpu7.interrupts.clk_domain.clock         3200                       # Clock period in ticks (Tick)
system.o3Cpu7.lsq0.forwLoads                     9783                       # Number of loads that had data forwarded from stores (Count)
system.o3Cpu7.lsq0.squashedLoads                39513                       # Number of loads squashed (Count)
system.o3Cpu7.lsq0.ignoredResponses                21                       # Number of memory responses ignored because the instruction is squashed (Count)
system.o3Cpu7.lsq0.memOrderViolation             1050                       # Number of memory ordering violations (Count)
system.o3Cpu7.lsq0.squashedStores               11409                       # Number of stores squashed (Count)
system.o3Cpu7.lsq0.rescheduledLoads                81                       # Number of loads that were rescheduled (Count)
system.o3Cpu7.lsq0.blockedByCache               56570                       # Number of times an access to memory failed due to the cache being blocked (Count)
system.o3Cpu7.lsq0.loadToUse::samples         2679495                       # Distribution of cycle latency between the first time a load is issued and its completion (Unspecified)
system.o3Cpu7.lsq0.loadToUse::mean         697.722379                       # Distribution of cycle latency between the first time a load is issued and its completion (Unspecified)
system.o3Cpu7.lsq0.loadToUse::stdev        673.227167                       # Distribution of cycle latency between the first time a load is issued and its completion (Unspecified)
system.o3Cpu7.lsq0.loadToUse::0-9              774844     28.92%     28.92% # Distribution of cycle latency between the first time a load is issued and its completion (Unspecified)
system.o3Cpu7.lsq0.loadToUse::10-19              9713      0.36%     29.28% # Distribution of cycle latency between the first time a load is issued and its completion (Unspecified)
system.o3Cpu7.lsq0.loadToUse::20-29             15755      0.59%     29.87% # Distribution of cycle latency between the first time a load is issued and its completion (Unspecified)
system.o3Cpu7.lsq0.loadToUse::30-39              9918      0.37%     30.24% # Distribution of cycle latency between the first time a load is issued and its completion (Unspecified)
system.o3Cpu7.lsq0.loadToUse::40-49              7629      0.28%     30.52% # Distribution of cycle latency between the first time a load is issued and its completion (Unspecified)
system.o3Cpu7.lsq0.loadToUse::50-59              2795      0.10%     30.63% # Distribution of cycle latency between the first time a load is issued and its completion (Unspecified)
system.o3Cpu7.lsq0.loadToUse::60-69              4378      0.16%     30.79% # Distribution of cycle latency between the first time a load is issued and its completion (Unspecified)
system.o3Cpu7.lsq0.loadToUse::70-79              6340      0.24%     31.03% # Distribution of cycle latency between the first time a load is issued and its completion (Unspecified)
system.o3Cpu7.lsq0.loadToUse::80-89              6221      0.23%     31.26% # Distribution of cycle latency between the first time a load is issued and its completion (Unspecified)
system.o3Cpu7.lsq0.loadToUse::90-99              4533      0.17%     31.43% # Distribution of cycle latency between the first time a load is issued and its completion (Unspecified)
system.o3Cpu7.lsq0.loadToUse::100-109            2522      0.09%     31.52% # Distribution of cycle latency between the first time a load is issued and its completion (Unspecified)
system.o3Cpu7.lsq0.loadToUse::110-119            2353      0.09%     31.61% # Distribution of cycle latency between the first time a load is issued and its completion (Unspecified)
system.o3Cpu7.lsq0.loadToUse::120-129            2882      0.11%     31.72% # Distribution of cycle latency between the first time a load is issued and its completion (Unspecified)
system.o3Cpu7.lsq0.loadToUse::130-139            4075      0.15%     31.87% # Distribution of cycle latency between the first time a load is issued and its completion (Unspecified)
system.o3Cpu7.lsq0.loadToUse::140-149            3737      0.14%     32.01% # Distribution of cycle latency between the first time a load is issued and its completion (Unspecified)
system.o3Cpu7.lsq0.loadToUse::150-159            2675      0.10%     32.11% # Distribution of cycle latency between the first time a load is issued and its completion (Unspecified)
system.o3Cpu7.lsq0.loadToUse::160-169            2289      0.09%     32.19% # Distribution of cycle latency between the first time a load is issued and its completion (Unspecified)
system.o3Cpu7.lsq0.loadToUse::170-179            2743      0.10%     32.30% # Distribution of cycle latency between the first time a load is issued and its completion (Unspecified)
system.o3Cpu7.lsq0.loadToUse::180-189            4192      0.16%     32.45% # Distribution of cycle latency between the first time a load is issued and its completion (Unspecified)
system.o3Cpu7.lsq0.loadToUse::190-199            4673      0.17%     32.63% # Distribution of cycle latency between the first time a load is issued and its completion (Unspecified)
system.o3Cpu7.lsq0.loadToUse::200-209            3180      0.12%     32.75% # Distribution of cycle latency between the first time a load is issued and its completion (Unspecified)
system.o3Cpu7.lsq0.loadToUse::210-219            2438      0.09%     32.84% # Distribution of cycle latency between the first time a load is issued and its completion (Unspecified)
system.o3Cpu7.lsq0.loadToUse::220-229            3380      0.13%     32.96% # Distribution of cycle latency between the first time a load is issued and its completion (Unspecified)
system.o3Cpu7.lsq0.loadToUse::230-239            4978      0.19%     33.15% # Distribution of cycle latency between the first time a load is issued and its completion (Unspecified)
system.o3Cpu7.lsq0.loadToUse::240-249            5369      0.20%     33.35% # Distribution of cycle latency between the first time a load is issued and its completion (Unspecified)
system.o3Cpu7.lsq0.loadToUse::250-259            4182      0.16%     33.51% # Distribution of cycle latency between the first time a load is issued and its completion (Unspecified)
system.o3Cpu7.lsq0.loadToUse::260-269            3007      0.11%     33.62% # Distribution of cycle latency between the first time a load is issued and its completion (Unspecified)
system.o3Cpu7.lsq0.loadToUse::270-279            3215      0.12%     33.74% # Distribution of cycle latency between the first time a load is issued and its completion (Unspecified)
system.o3Cpu7.lsq0.loadToUse::280-289            3526      0.13%     33.87% # Distribution of cycle latency between the first time a load is issued and its completion (Unspecified)
system.o3Cpu7.lsq0.loadToUse::290-299            4511      0.17%     34.04% # Distribution of cycle latency between the first time a load is issued and its completion (Unspecified)
system.o3Cpu7.lsq0.loadToUse::overflows       1767442     65.96%    100.00% # Distribution of cycle latency between the first time a load is issued and its completion (Unspecified)
system.o3Cpu7.lsq0.loadToUse::min_value             2                       # Distribution of cycle latency between the first time a load is issued and its completion (Unspecified)
system.o3Cpu7.lsq0.loadToUse::max_value          9951                       # Distribution of cycle latency between the first time a load is issued and its completion (Unspecified)
system.o3Cpu7.lsq0.loadToUse::total           2679495                       # Distribution of cycle latency between the first time a load is issued and its completion (Unspecified)
system.o3Cpu7.mmu.dtb.rdAccesses              2709010                       # TLB accesses on read requests (Count)
system.o3Cpu7.mmu.dtb.wrAccesses              2943865                       # TLB accesses on write requests (Count)
system.o3Cpu7.mmu.dtb.rdMisses                   4369                       # TLB misses on read requests (Count)
system.o3Cpu7.mmu.dtb.wrMisses                   3492                       # TLB misses on write requests (Count)
system.o3Cpu7.mmu.dtb.walker.power_state.pwrStateResidencyTicks::UNDEFINED  90060132800                       # Cumulative time (in ticks) in various power states (Tick)
system.o3Cpu7.mmu.itb.rdAccesses                    0                       # TLB accesses on read requests (Count)
system.o3Cpu7.mmu.itb.wrAccesses              1022579                       # TLB accesses on write requests (Count)
system.o3Cpu7.mmu.itb.rdMisses                      0                       # TLB misses on read requests (Count)
system.o3Cpu7.mmu.itb.wrMisses                    203                       # TLB misses on write requests (Count)
system.o3Cpu7.mmu.itb.walker.power_state.pwrStateResidencyTicks::UNDEFINED  90060132800                       # Cumulative time (in ticks) in various power states (Tick)
system.o3Cpu7.power_state.pwrStateResidencyTicks::OFF  90060132800                       # Cumulative time (in ticks) in various power states (Tick)
system.o3Cpu7.rename.squashCycles                6176                       # Number of cycles rename is squashing (Cycle)
system.o3Cpu7.rename.idleCycles                741666                       # Number of cycles rename is idle (Cycle)
system.o3Cpu7.rename.blockCycles            234167799                       # Number of cycles rename is blocking (Cycle)
system.o3Cpu7.rename.serializeStallCycles      1310543                       # count of cycles rename stalled for serializing inst (Cycle)
system.o3Cpu7.rename.runCycles                 633442                       # Number of cycles rename is running (Cycle)
system.o3Cpu7.rename.unblockCycles          200971576                       # Number of cycles rename is unblocking (Cycle)
system.o3Cpu7.rename.renamedInsts            13358233                       # Number of instructions processed by rename (Count)
system.o3Cpu7.rename.ROBFullEvents              10046                       # Number of times rename has blocked due to ROB full (Count)
system.o3Cpu7.rename.IQFullEvents              142381                       # Number of times rename has blocked due to IQ full (Count)
system.o3Cpu7.rename.LQFullEvents               38302                       # Number of times rename has blocked due to LQ full (Count)
system.o3Cpu7.rename.SQFullEvents           200856824                       # Number of times rename has blocked due to SQ full (Count)
system.o3Cpu7.rename.renamedOperands         16401736                       # Number of destination operands rename has renamed (Count)
system.o3Cpu7.rename.lookups                 41986229                       # Number of register rename lookups that rename has made (Count)
system.o3Cpu7.rename.intLookups               9318171                       # Number of integer rename lookups (Count)
system.o3Cpu7.rename.fpLookups               12301112                       # Number of floating rename lookups (Count)
system.o3Cpu7.rename.committedMaps           16129865                       # Number of HB maps that are committed (Count)
system.o3Cpu7.rename.undoneMaps                271840                       # Number of HB maps that are undone due to squashing (Count)
system.o3Cpu7.rename.serializing                 3869                       # count of serializing insts renamed (Count)
system.o3Cpu7.rename.tempSerializing             4081                       # count of temporary serializing insts renamed (Count)
system.o3Cpu7.rename.skidInsts                7956803                       # count of insts added to the skid buffer (Count)
system.o3Cpu7.rob.reads                     451086714                       # The number of ROB reads (Count)
system.o3Cpu7.rob.writes                     26696572                       # The number of ROB writes (Count)
system.o3Cpu7.thread_0.numInsts               8117031                       # Number of Instructions committed (Count)
system.o3Cpu7.thread_0.numOps                13184423                       # Number of Ops committed (Count)
system.o3Cpu7.thread_0.numMemRefs                   0                       # Number of Memory References (Count)
system.pc.bad_addr.power_state.pwrStateResidencyTicks::UNDEFINED  90060132800                       # Cumulative time (in ticks) in various power states (Tick)
system.pc.com_1.power_state.pwrStateResidencyTicks::UNDEFINED  90060132800                       # Cumulative time (in ticks) in various power states (Tick)
system.pc.default_bus.power_state.pwrStateResidencyTicks::UNDEFINED  90060132800                       # Cumulative time (in ticks) in various power states (Tick)
system.pc.empty_isa.power_state.pwrStateResidencyTicks::UNDEFINED  90060132800                       # Cumulative time (in ticks) in various power states (Tick)
system.pc.fake_com_2.power_state.pwrStateResidencyTicks::UNDEFINED  90060132800                       # Cumulative time (in ticks) in various power states (Tick)
system.pc.fake_com_3.power_state.pwrStateResidencyTicks::UNDEFINED  90060132800                       # Cumulative time (in ticks) in various power states (Tick)
system.pc.fake_com_4.power_state.pwrStateResidencyTicks::UNDEFINED  90060132800                       # Cumulative time (in ticks) in various power states (Tick)
system.pc.fake_floppy.power_state.pwrStateResidencyTicks::UNDEFINED  90060132800                       # Cumulative time (in ticks) in various power states (Tick)
system.pc.pci_host.power_state.pwrStateResidencyTicks::UNDEFINED  90060132800                       # Cumulative time (in ticks) in various power states (Tick)
system.pc.south_bridge.cmos.power_state.pwrStateResidencyTicks::UNDEFINED  90060132800                       # Cumulative time (in ticks) in various power states (Tick)
system.pc.south_bridge.dma1.power_state.pwrStateResidencyTicks::UNDEFINED  90060132800                       # Cumulative time (in ticks) in various power states (Tick)
system.pc.south_bridge.ide.disks0.IdeDisk.dmaReadFullPages            0                       # Number of full page size DMA reads (not PRD). (Count)
system.pc.south_bridge.ide.disks0.IdeDisk.dmaReadBytes            0                       # Number of bytes transfered via DMA reads (not PRD). (Byte)
system.pc.south_bridge.ide.disks0.IdeDisk.dmaReadTxs            0                       # Number of DMA read transactions (not PRD). (Count)
system.pc.south_bridge.ide.disks0.IdeDisk.dmaWriteFullPages            0                       # Number of full page size DMA writes. (Count)
system.pc.south_bridge.ide.disks0.IdeDisk.dmaWriteBytes            0                       # Number of bytes transfered via DMA writes. (Byte)
system.pc.south_bridge.ide.disks0.IdeDisk.dmaWriteTxs            0                       # Number of DMA write transactions. (Count)
system.pc.south_bridge.ide.disks1.IdeDisk.dmaReadFullPages            0                       # Number of full page size DMA reads (not PRD). (Count)
system.pc.south_bridge.ide.disks1.IdeDisk.dmaReadBytes            0                       # Number of bytes transfered via DMA reads (not PRD). (Byte)
system.pc.south_bridge.ide.disks1.IdeDisk.dmaReadTxs            0                       # Number of DMA read transactions (not PRD). (Count)
system.pc.south_bridge.ide.disks1.IdeDisk.dmaWriteFullPages            0                       # Number of full page size DMA writes. (Count)
system.pc.south_bridge.ide.disks1.IdeDisk.dmaWriteBytes            0                       # Number of bytes transfered via DMA writes. (Byte)
system.pc.south_bridge.ide.disks1.IdeDisk.dmaWriteTxs            0                       # Number of DMA write transactions. (Count)
system.pc.south_bridge.ide.power_state.pwrStateResidencyTicks::UNDEFINED  90060132800                       # Cumulative time (in ticks) in various power states (Tick)
system.pc.south_bridge.io_apic.power_state.pwrStateResidencyTicks::UNDEFINED  90060132800                       # Cumulative time (in ticks) in various power states (Tick)
system.pc.south_bridge.keyboard.power_state.pwrStateResidencyTicks::UNDEFINED  90060132800                       # Cumulative time (in ticks) in various power states (Tick)
system.pc.south_bridge.pic1.power_state.pwrStateResidencyTicks::UNDEFINED  90060132800                       # Cumulative time (in ticks) in various power states (Tick)
system.pc.south_bridge.pic2.power_state.pwrStateResidencyTicks::UNDEFINED  90060132800                       # Cumulative time (in ticks) in various power states (Tick)
system.pc.south_bridge.pit.power_state.pwrStateResidencyTicks::UNDEFINED  90060132800                       # Cumulative time (in ticks) in various power states (Tick)
system.pc.south_bridge.speaker.power_state.pwrStateResidencyTicks::UNDEFINED  90060132800                       # Cumulative time (in ticks) in various power states (Tick)
system.workload.inst.arm                            0                       # number of arm instructions executed (Count)
system.workload.inst.quiesce                        0                       # number of quiesce instructions executed (Count)

---------- End Simulation Statistics   ----------
