
---------- Begin Simulation Statistics ----------
simSeconds                                   0.052786                       # Number of seconds simulated (Second)
simTicks                                  52786206840                       # Number of ticks simulated (Tick)
finalTick                                169600435226600                       # Number of ticks from beginning of simulation (restored from checkpoints and never reset) (Tick)
simFreq                                  1000000000000                       # The number of ticks per simulated second ((Tick/Second))
hostSeconds                                   4220.55                       # Real time elapsed on the host (Second)
hostTickRate                                 12506940                       # The number of ticks simulated per host second (ticks/s) ((Tick/Second))
hostMemory                                   19561408                       # Number of bytes of host memory used (Byte)
simInsts                                    239265019                       # Number of instructions simulated (Count)
simOps                                      425613534                       # Number of ops (including micro ops) simulated (Count)
hostInstRate                                    56690                       # Simulator instruction rate (inst/s) ((Count/Second))
hostOpRate                                     100843                       # Simulator op (including micro ops) rate (op/s) ((Count/Second))
system.caches.delayHistogram::bucket_size            8                       # delay histogram for all message (Unspecified)
system.caches.delayHistogram::max_bucket           79                       # delay histogram for all message (Unspecified)
system.caches.delayHistogram::samples         7534200                       # delay histogram for all message (Unspecified)
system.caches.delayHistogram::mean           1.663234                       # delay histogram for all message (Unspecified)
system.caches.delayHistogram::stdev          3.385276                       # delay histogram for all message (Unspecified)
system.caches.delayHistogram             |     6214752     82.49%     82.49% |     1300139     17.26%     99.74% |       15335      0.20%     99.95% |        3316      0.04%     99.99% |         597      0.01%    100.00% |          57      0.00%    100.00% |           3      0.00%    100.00% |           1      0.00%    100.00% |           0      0.00%    100.00% |           0      0.00%    100.00% # delay histogram for all message (Unspecified)
system.caches.delayHistogram::total           7534200                       # delay histogram for all message (Unspecified)
system.caches.m_outstandReqHistSeqr::bucket_size            2                       (Unspecified)
system.caches.m_outstandReqHistSeqr::max_bucket           19                       (Unspecified)
system.caches.m_outstandReqHistSeqr::samples    208351582                       (Unspecified)
system.caches.m_outstandReqHistSeqr::mean     1.808857                       (Unspecified)
system.caches.m_outstandReqHistSeqr::gmean     1.462407                       (Unspecified)
system.caches.m_outstandReqHistSeqr::stdev     1.748383                       (Unspecified)
system.caches.m_outstandReqHistSeqr      |   129827356     62.31%     62.31% |    62250436     29.88%     92.19% |    10226358      4.91%     97.10% |     1850261      0.89%     97.99% |     1286282      0.62%     98.60% |      945021      0.45%     99.06% |      938614      0.45%     99.51% |      598105      0.29%     99.79% |      429149      0.21%    100.00% |           0      0.00%    100.00% (Unspecified)
system.caches.m_outstandReqHistSeqr::total    208351582                       (Unspecified)
system.caches.m_latencyHistSeqr::bucket_size          512                       (Unspecified)
system.caches.m_latencyHistSeqr::max_bucket         5119                       (Unspecified)
system.caches.m_latencyHistSeqr::samples    211953086                       (Unspecified)
system.caches.m_latencyHistSeqr::mean        1.444237                       (Unspecified)
system.caches.m_latencyHistSeqr::gmean       1.034976                       (Unspecified)
system.caches.m_latencyHistSeqr::stdev      13.053645                       (Unspecified)
system.caches.m_latencyHistSeqr          |   211931732     99.99%     99.99% |       17086      0.01%    100.00% |        2040      0.00%    100.00% |        1383      0.00%    100.00% |         629      0.00%    100.00% |         206      0.00%    100.00% |           9      0.00%    100.00% |           1      0.00%    100.00% |           0      0.00%    100.00% |           0      0.00%    100.00% (Unspecified)
system.caches.m_latencyHistSeqr::total      211953086                       (Unspecified)
system.caches.m_hitLatencyHistSeqr::bucket_size          128                       (Unspecified)
system.caches.m_hitLatencyHistSeqr::max_bucket         1279                       (Unspecified)
system.caches.m_hitLatencyHistSeqr::samples    210511083                       (Unspecified)
system.caches.m_hitLatencyHistSeqr::mean     1.017616                       (Unspecified)
system.caches.m_hitLatencyHistSeqr::gmean     1.012276                       (Unspecified)
system.caches.m_hitLatencyHistSeqr::stdev     0.150894                       (Unspecified)
system.caches.m_hitLatencyHistSeqr       |   210511078    100.00%    100.00% |           2      0.00%    100.00% |           0      0.00%    100.00% |           1      0.00%    100.00% |           1      0.00%    100.00% |           1      0.00%    100.00% |           0      0.00%    100.00% |           0      0.00%    100.00% |           0      0.00%    100.00% |           0      0.00%    100.00% (Unspecified)
system.caches.m_hitLatencyHistSeqr::total    210511083                       (Unspecified)
system.caches.m_missLatencyHistSeqr::bucket_size          512                       (Unspecified)
system.caches.m_missLatencyHistSeqr::max_bucket         5119                       (Unspecified)
system.caches.m_missLatencyHistSeqr::samples      1442003                       (Unspecified)
system.caches.m_missLatencyHistSeqr::mean    63.724666                       (Unspecified)
system.caches.m_missLatencyHistSeqr::gmean    26.359298                       (Unspecified)
system.caches.m_missLatencyHistSeqr::stdev   145.386374                       (Unspecified)
system.caches.m_missLatencyHistSeqr      |     1420651     98.52%     98.52% |       17084      1.18%     99.70% |        2040      0.14%     99.85% |        1383      0.10%     99.94% |         629      0.04%     99.99% |         206      0.01%    100.00% |           9      0.00%    100.00% |           1      0.00%    100.00% |           0      0.00%    100.00% |           0      0.00%    100.00% (Unspecified)
system.caches.m_missLatencyHistSeqr::total      1442003                       (Unspecified)
system.caches.delayVCHist.vnet_0::bucket_size            4                       # delay histogram for vnet_0 (Unspecified)
system.caches.delayVCHist.vnet_0::max_bucket           39                       # delay histogram for vnet_0 (Unspecified)
system.caches.delayVCHist.vnet_0::samples      4277439                       # delay histogram for vnet_0 (Unspecified)
system.caches.delayVCHist.vnet_0::mean       2.191846                       # delay histogram for vnet_0 (Unspecified)
system.caches.delayVCHist.vnet_0::stdev      3.576006                       # delay histogram for vnet_0 (Unspecified)
system.caches.delayVCHist.vnet_0         |     3104690     72.58%     72.58% |       22292      0.52%     73.10% |     1146006     26.79%     99.90% |        2711      0.06%     99.96% |        1721      0.04%    100.00% |          19      0.00%    100.00% |           0      0.00%    100.00% |           0      0.00%    100.00% |           0      0.00%    100.00% |           0      0.00%    100.00% # delay histogram for vnet_0 (Unspecified)
system.caches.delayVCHist.vnet_0::total       4277439                       # delay histogram for vnet_0 (Unspecified)
system.caches.delayVCHist.vnet_1::bucket_size            8                       # delay histogram for vnet_1 (Unspecified)
system.caches.delayVCHist.vnet_1::max_bucket           79                       # delay histogram for vnet_1 (Unspecified)
system.caches.delayVCHist.vnet_1::samples      3220105                       # delay histogram for vnet_1 (Unspecified)
system.caches.delayVCHist.vnet_1::mean       0.979975                       # delay histogram for vnet_1 (Unspecified)
system.caches.delayVCHist.vnet_1::stdev      2.992885                       # delay histogram for vnet_1 (Unspecified)
system.caches.delayVCHist.vnet_1         |     3051114     94.75%     94.75% |      151422      4.70%     99.45% |       13595      0.42%     99.88% |        3316      0.10%     99.98% |         597      0.02%    100.00% |          57      0.00%    100.00% |           3      0.00%    100.00% |           1      0.00%    100.00% |           0      0.00%    100.00% |           0      0.00%    100.00% # delay histogram for vnet_1 (Unspecified)
system.caches.delayVCHist.vnet_1::total       3220105                       # delay histogram for vnet_1 (Unspecified)
system.caches.delayVCHist.vnet_2::bucket_size            1                       # delay histogram for vnet_2 (Unspecified)
system.caches.delayVCHist.vnet_2::max_bucket            9                       # delay histogram for vnet_2 (Unspecified)
system.caches.delayVCHist.vnet_2::samples        36656                       # delay histogram for vnet_2 (Unspecified)
system.caches.delayVCHist.vnet_2::mean       0.000764                       # delay histogram for vnet_2 (Unspecified)
system.caches.delayVCHist.vnet_2::stdev      0.039079                       # delay histogram for vnet_2 (Unspecified)
system.caches.delayVCHist.vnet_2         |       36642     99.96%     99.96% |           0      0.00%     99.96% |          14      0.04%    100.00% |           0      0.00%    100.00% |           0      0.00%    100.00% |           0      0.00%    100.00% |           0      0.00%    100.00% |           0      0.00%    100.00% |           0      0.00%    100.00% |           0      0.00%    100.00% # delay histogram for vnet_2 (Unspecified)
system.caches.delayVCHist.vnet_2::total         36656                       # delay histogram for vnet_2 (Unspecified)
system.caches.L1Cache_Controller.Load    |       34293      0.03%      0.03% |       23723      0.02%      0.06% |       23493      0.02%      0.08% |   104112620     99.83%     99.91% |       23218      0.02%     99.93% |       23317      0.02%     99.95% |       24175      0.02%     99.98% |       24005      0.02%    100.00% (Unspecified)
system.caches.L1Cache_Controller.Load::total    104288844                       (Unspecified)
system.caches.L1Cache_Controller.Ifetch  |       28975      0.03%      0.03% |       23055      0.03%      0.06% |       22524      0.03%      0.09% |    86531533     99.81%     99.89% |       22610      0.03%     99.92% |       22541      0.03%     99.95% |       23330      0.03%     99.97% |       23260      0.03%    100.00% (Unspecified)
system.caches.L1Cache_Controller.Ifetch::total     86697828                       (Unspecified)
system.caches.L1Cache_Controller.Store   |       30676      0.15%      0.15% |       19102      0.09%      0.24% |       18598      0.09%      0.33% |    20822615     99.31%     99.64% |       18533      0.09%     99.73% |       18533      0.09%     99.82% |       19212      0.09%     99.91% |       19145      0.09%    100.00% (Unspecified)
system.caches.L1Cache_Controller.Store::total     20966414                       (Unspecified)
system.caches.L1Cache_Controller.Inv     |       16410     80.90%     80.90% |         600      2.96%     83.86% |         547      2.70%     86.55% |         406      2.00%     88.55% |         598      2.95%     91.50% |         592      2.92%     94.42% |         596      2.94%     97.36% |         536      2.64%    100.00% (Unspecified)
system.caches.L1Cache_Controller.Inv::total        20285                       (Unspecified)
system.caches.L1Cache_Controller.L1_Replacement |         640      0.05%      0.05% |         217      0.02%      0.06% |         193      0.01%      0.07% |     1411080     99.87%     99.95% |         185      0.01%     99.96% |         183      0.01%     99.97% |         196      0.01%     99.99% |         187      0.01%    100.00% (Unspecified)
system.caches.L1Cache_Controller.L1_Replacement::total      1412881                       (Unspecified)
system.caches.L1Cache_Controller.Fwd_GETX |           0      0.00%      0.00% |           0      0.00%      0.00% |           3    100.00%    100.00% |           0      0.00%    100.00% |           0      0.00%    100.00% |           0      0.00%    100.00% |           0      0.00%    100.00% |           0      0.00%    100.00% (Unspecified)
system.caches.L1Cache_Controller.Fwd_GETX::total            3                       (Unspecified)
system.caches.L1Cache_Controller.Fwd_GETS |       16045     98.03%     98.03% |          52      0.32%     98.34% |          48      0.29%     98.64% |          59      0.36%     99.00% |          37      0.23%     99.22% |          41      0.25%     99.47% |          49      0.30%     99.77% |          37      0.23%    100.00% (Unspecified)
system.caches.L1Cache_Controller.Fwd_GETS::total        16368                       (Unspecified)
system.caches.L1Cache_Controller.Data    |           3     21.43%     21.43% |           0      0.00%     21.43% |           0      0.00%     21.43% |           9     64.29%     85.71% |           0      0.00%     85.71% |           1      7.14%     92.86% |           1      7.14%    100.00% |           0      0.00%    100.00% (Unspecified)
system.caches.L1Cache_Controller.Data::total           14                       (Unspecified)
system.caches.L1Cache_Controller.Data_Exclusive |         107      0.01%      0.01% |          61      0.00%      0.01% |          50      0.00%      0.02% |     1395927     99.97%     99.98% |          71      0.01%     99.99% |          62      0.00%     99.99% |          72      0.01%    100.00% |          32      0.00%    100.00% (Unspecified)
system.caches.L1Cache_Controller.Data_Exclusive::total      1396382                       (Unspecified)
system.caches.L1Cache_Controller.DataS_fromL1 |          81      0.49%      0.49% |         263      1.61%      2.10% |          49      0.30%      2.40% |       15780     96.41%     98.81% |          59      0.36%     99.17% |          57      0.35%     99.52% |          54      0.33%     99.85% |          25      0.15%    100.00% (Unspecified)
system.caches.L1Cache_Controller.DataS_fromL1::total        16368                       (Unspecified)
system.caches.L1Cache_Controller.Data_all_Acks |         917      7.08%      7.08% |         545      4.21%     11.29% |         678      5.24%     16.53% |        7913     61.13%     77.66% |         695      5.37%     83.03% |         706      5.45%     88.48% |         742      5.73%     94.21% |         749      5.79%    100.00% (Unspecified)
system.caches.L1Cache_Controller.Data_all_Acks::total        12945                       (Unspecified)
system.caches.L1Cache_Controller.Ack     |        1588      8.78%      8.78% |         110      0.61%      9.39% |          99      0.55%      9.94% |       15865     87.72%     97.66% |          99      0.55%     98.21% |          98      0.54%     98.75% |         107      0.59%     99.34% |         119      0.66%    100.00% (Unspecified)
system.caches.L1Cache_Controller.Ack::total        18085                       (Unspecified)
system.caches.L1Cache_Controller.Ack_all |         247      1.51%      1.51% |          44      0.27%      1.78% |          35      0.21%      2.00% |       15828     97.06%     99.06% |          35      0.21%     99.27% |          35      0.21%     99.48% |          44      0.27%     99.75% |          40      0.25%    100.00% (Unspecified)
system.caches.L1Cache_Controller.Ack_all::total        16308                       (Unspecified)
system.caches.L1Cache_Controller.WB_Ack  |         169      0.01%      0.01% |           3      0.00%      0.01% |           0      0.00%      0.01% |     1404715     99.99%    100.00% |           0      0.00%    100.00% |           0      0.00%    100.00% |           0      0.00%    100.00% |           0      0.00%    100.00% (Unspecified)
system.caches.L1Cache_Controller.WB_Ack::total      1404887                       (Unspecified)
system.caches.L1Cache_Controller.NP.Load |         177      0.01%      0.01% |          99      0.01%      0.02% |          66      0.00%      0.02% |     1417604     99.96%     99.98% |          66      0.00%     99.99% |          58      0.00%     99.99% |          69      0.00%    100.00% |          69      0.00%    100.00% (Unspecified)
system.caches.L1Cache_Controller.NP.Load::total      1418208                       (Unspecified)
system.caches.L1Cache_Controller.NP.Ifetch |         656     22.56%     22.56% |         281      9.66%     32.22% |         287      9.87%     42.09% |         548     18.84%     60.94% |         280      9.63%     70.56% |         281      9.66%     80.23% |         291     10.01%     90.23% |         284      9.77%    100.00% (Unspecified)
system.caches.L1Cache_Controller.NP.Ifetch::total         2908                       (Unspecified)
system.caches.L1Cache_Controller.NP.Store |          49      3.66%      3.66% |           0      0.00%      3.66% |           0      0.00%      3.66% |        1289     96.34%    100.00% |           0      0.00%    100.00% |           0      0.00%    100.00% |           0      0.00%    100.00% |           0      0.00%    100.00% (Unspecified)
system.caches.L1Cache_Controller.NP.Store::total         1338                       (Unspecified)
system.caches.L1Cache_Controller.NP.Inv  |          21      8.94%      8.94% |          10      4.26%     13.19% |           4      1.70%     14.89% |         182     77.45%     92.34% |           4      1.70%     94.04% |           4      1.70%     95.74% |           5      2.13%     97.87% |           5      2.13%    100.00% (Unspecified)
system.caches.L1Cache_Controller.NP.Inv::total          235                       (Unspecified)
system.caches.L1Cache_Controller.I.Load  |         129      5.54%      5.54% |         358     15.37%     20.91% |         326     14.00%     34.91% |          61      2.62%     37.53% |         358     15.37%     52.90% |         357     15.33%     68.23% |         388     16.66%     84.89% |         352     15.11%    100.00% (Unspecified)
system.caches.L1Cache_Controller.I.Load::total         2329                       (Unspecified)
system.caches.L1Cache_Controller.I.Ifetch |          93     12.25%     12.25% |          92     12.12%     24.37% |          87     11.46%     35.84% |         127     16.73%     52.57% |          88     11.59%     64.16% |          94     12.38%     76.55% |          89     11.73%     88.27% |          89     11.73%    100.00% (Unspecified)
system.caches.L1Cache_Controller.I.Ifetch::total          759                       (Unspecified)
system.caches.L1Cache_Controller.I.Store |           4      2.40%      2.40% |          39     23.35%     25.75% |          11      6.59%     32.34% |           0      0.00%     32.34% |          33     19.76%     52.10% |          36     21.56%     73.65% |          32     19.16%     92.81% |          12      7.19%    100.00% (Unspecified)
system.caches.L1Cache_Controller.I.Store::total          167                       (Unspecified)
system.caches.L1Cache_Controller.I.L1_Replacement |          49     64.47%     64.47% |          11     14.47%     78.95% |           0      0.00%     78.95% |          16     21.05%    100.00% |           0      0.00%    100.00% |           0      0.00%    100.00% |           0      0.00%    100.00% |           0      0.00%    100.00% (Unspecified)
system.caches.L1Cache_Controller.I.L1_Replacement::total           76                       (Unspecified)
system.caches.L1Cache_Controller.S.Load  |        5618      2.17%      2.17% |        6607      2.55%      4.73% |        6376      2.47%      7.19% |      214378     82.90%     90.09% |        6052      2.34%     92.43% |        6306      2.44%     94.87% |        6654      2.57%     97.44% |        6613      2.56%    100.00% (Unspecified)
system.caches.L1Cache_Controller.S.Load::total       258604                       (Unspecified)
system.caches.L1Cache_Controller.S.Ifetch |       28226      0.03%      0.03% |       22682      0.03%      0.06% |       22150      0.03%      0.08% |    86530858     99.81%     99.90% |       22242      0.03%     99.92% |       22166      0.03%     99.95% |       22950      0.03%     99.97% |       22887      0.03%    100.00% (Unspecified)
system.caches.L1Cache_Controller.S.Ifetch::total     86694161                       (Unspecified)
system.caches.L1Cache_Controller.S.Store |         244      1.50%      1.50% |          44      0.27%      1.77% |          35      0.21%      1.98% |       15819     97.08%     99.07% |          35      0.21%     99.28% |          34      0.21%     99.49% |          43      0.26%     99.75% |          40      0.25%    100.00% (Unspecified)
system.caches.L1Cache_Controller.S.Store::total        16294                       (Unspecified)
system.caches.L1Cache_Controller.S.Inv   |       16075     83.44%     83.44% |         500      2.60%     86.04% |         493      2.56%     88.60% |         223      1.16%     89.75% |         495      2.57%     92.32% |         496      2.57%     94.90% |         493      2.56%     97.46% |         490      2.54%    100.00% (Unspecified)
system.caches.L1Cache_Controller.S.Inv::total        19265                       (Unspecified)
system.caches.L1Cache_Controller.S.L1_Replacement |         422      5.33%      5.33% |         203      2.56%      7.89% |         193      2.44%     10.33% |        6349     80.18%     90.52% |         185      2.34%     92.85% |         183      2.31%     95.16% |         196      2.48%     97.64% |         187      2.36%    100.00% (Unspecified)
system.caches.L1Cache_Controller.S.L1_Replacement::total         7918                       (Unspecified)
system.caches.L1Cache_Controller.E.Load  |        5919      0.06%      0.06% |        4783      0.05%      0.10% |        5225      0.05%      0.16% |    10201731     99.64%     99.80% |        5218      0.05%     99.85% |        5051      0.05%     99.90% |        5245      0.05%     99.95% |        5129      0.05%    100.00% (Unspecified)
system.caches.L1Cache_Controller.E.Load::total     10238301                       (Unspecified)
system.caches.L1Cache_Controller.E.Store |          18      0.00%      0.00% |          11      0.00%      0.00% |           4      0.00%      0.00% |     1158901     99.99%    100.00% |          13      0.00%    100.00% |          14      0.00%    100.00% |          14      0.00%    100.00% |           6      0.00%    100.00% (Unspecified)
system.caches.L1Cache_Controller.E.Store::total      1158981                       (Unspecified)
system.caches.L1Cache_Controller.E.Inv   |          30     11.11%     11.11% |          39     14.44%     25.56% |          33     12.22%     37.78% |           0      0.00%     37.78% |          53     19.63%     57.41% |          41     15.19%     72.59% |          51     18.89%     91.48% |          23      8.52%    100.00% (Unspecified)
system.caches.L1Cache_Controller.E.Inv::total          270                       (Unspecified)
system.caches.L1Cache_Controller.E.L1_Replacement |           0      0.00%      0.00% |           3      0.00%      0.00% |           0      0.00%      0.00% |      237118    100.00%    100.00% |           0      0.00%    100.00% |           0      0.00%    100.00% |           0      0.00%    100.00% |           0      0.00%    100.00% (Unspecified)
system.caches.L1Cache_Controller.E.L1_Replacement::total       237121                       (Unspecified)
system.caches.L1Cache_Controller.E.Fwd_GETX |           0      0.00%      0.00% |           0      0.00%      0.00% |           3    100.00%    100.00% |           0      0.00%    100.00% |           0      0.00%    100.00% |           0      0.00%    100.00% |           0      0.00%    100.00% |           0      0.00%    100.00% (Unspecified)
system.caches.L1Cache_Controller.E.Fwd_GETX::total            3                       (Unspecified)
system.caches.L1Cache_Controller.E.Fwd_GETS |          30     44.12%     44.12% |           6      8.82%     52.94% |          11     16.18%     69.12% |          13     19.12%     88.24% |           0      0.00%     88.24% |           3      4.41%     92.65% |           5      7.35%    100.00% |           0      0.00%    100.00% (Unspecified)
system.caches.L1Cache_Controller.E.Fwd_GETS::total           68                       (Unspecified)
system.caches.L1Cache_Controller.M.Load  |       22450      0.02%      0.02% |       11876      0.01%      0.04% |       11500      0.01%      0.05% |    92278846     99.90%     99.95% |       11524      0.01%     99.96% |       11545      0.01%     99.97% |       11819      0.01%     99.99% |       11842      0.01%    100.00% (Unspecified)
system.caches.L1Cache_Controller.M.Load::total     92371402                       (Unspecified)
system.caches.L1Cache_Controller.M.Store |       30361      0.15%      0.15% |       19008      0.10%      0.25% |       18548      0.09%      0.34% |    19646606     99.28%     99.62% |       18452      0.09%     99.71% |       18449      0.09%     99.81% |       19123      0.10%     99.90% |       19087      0.10%    100.00% (Unspecified)
system.caches.L1Cache_Controller.M.Store::total     19789634                       (Unspecified)
system.caches.L1Cache_Controller.M.Inv   |         284     55.15%     55.15% |          51      9.90%     65.05% |          17      3.30%     68.35% |           1      0.19%     68.54% |          46      8.93%     77.48% |          51      9.90%     87.38% |          47      9.13%     96.50% |          18      3.50%    100.00% (Unspecified)
system.caches.L1Cache_Controller.M.Inv::total          515                       (Unspecified)
system.caches.L1Cache_Controller.M.L1_Replacement |         169      0.01%      0.01% |           0      0.00%      0.01% |           0      0.00%      0.01% |     1167597     99.99%    100.00% |           0      0.00%    100.00% |           0      0.00%    100.00% |           0      0.00%    100.00% |           0      0.00%    100.00% (Unspecified)
system.caches.L1Cache_Controller.M.L1_Replacement::total      1167766                       (Unspecified)
system.caches.L1Cache_Controller.M.Fwd_GETS |       16015     98.25%     98.25% |          46      0.28%     98.53% |          37      0.23%     98.76% |          46      0.28%     99.04% |          37      0.23%     99.27% |          38      0.23%     99.50% |          44      0.27%     99.77% |          37      0.23%    100.00% (Unspecified)
system.caches.L1Cache_Controller.M.Fwd_GETS::total        16300                       (Unspecified)
system.caches.L1Cache_Controller.IS.Data_Exclusive |         107      0.01%      0.01% |          61      0.00%      0.01% |          50      0.00%      0.02% |     1395927     99.97%     99.98% |          71      0.01%     99.99% |          62      0.00%     99.99% |          72      0.01%    100.00% |          32      0.00%    100.00% (Unspecified)
system.caches.L1Cache_Controller.IS.Data_Exclusive::total      1396382                       (Unspecified)
system.caches.L1Cache_Controller.IS.DataS_fromL1 |          81      0.49%      0.49% |         263      1.61%      2.10% |          49      0.30%      2.40% |       15780     96.41%     98.81% |          59      0.36%     99.17% |          57      0.35%     99.52% |          54      0.33%     99.85% |          25      0.15%    100.00% (Unspecified)
system.caches.L1Cache_Controller.IS.DataS_fromL1::total        16368                       (Unspecified)
system.caches.L1Cache_Controller.IS.Data_all_Acks |         867      7.57%      7.57% |         506      4.42%     11.99% |         667      5.82%     17.81% |        6633     57.91%     75.72% |         662      5.78%     81.50% |         671      5.86%     87.36% |         711      6.21%     93.57% |         737      6.43%    100.00% (Unspecified)
system.caches.L1Cache_Controller.IS.Data_all_Acks::total        11454                       (Unspecified)
system.caches.L1Cache_Controller.IM.Data |           3     21.43%     21.43% |           0      0.00%     21.43% |           0      0.00%     21.43% |           9     64.29%     85.71% |           0      0.00%     85.71% |           1      7.14%     92.86% |           1      7.14%    100.00% |           0      0.00%    100.00% (Unspecified)
system.caches.L1Cache_Controller.IM.Data::total           14                       (Unspecified)
system.caches.L1Cache_Controller.IM.Data_all_Acks |          50      3.35%      3.35% |          39      2.62%      5.97% |          11      0.74%      6.71% |        1280     85.85%     92.56% |          33      2.21%     94.77% |          35      2.35%     97.12% |          31      2.08%     99.20% |          12      0.80%    100.00% (Unspecified)
system.caches.L1Cache_Controller.IM.Data_all_Acks::total         1491                       (Unspecified)
system.caches.L1Cache_Controller.SM.Ack  |        1588      8.78%      8.78% |         110      0.61%      9.39% |          99      0.55%      9.94% |       15865     87.72%     97.66% |          99      0.55%     98.21% |          98      0.54%     98.75% |         107      0.59%     99.34% |         119      0.66%    100.00% (Unspecified)
system.caches.L1Cache_Controller.SM.Ack::total        18085                       (Unspecified)
system.caches.L1Cache_Controller.SM.Ack_all |         247      1.51%      1.51% |          44      0.27%      1.78% |          35      0.21%      2.00% |       15828     97.06%     99.06% |          35      0.21%     99.27% |          35      0.21%     99.48% |          44      0.27%     99.75% |          40      0.25%    100.00% (Unspecified)
system.caches.L1Cache_Controller.SM.Ack_all::total        16308                       (Unspecified)
system.caches.L1Cache_Controller.M_I.WB_Ack |         169      0.01%      0.01% |           3      0.00%      0.01% |           0      0.00%      0.01% |     1404715     99.99%    100.00% |           0      0.00%    100.00% |           0      0.00%    100.00% |           0      0.00%    100.00% |           0      0.00%    100.00% (Unspecified)
system.caches.L1Cache_Controller.M_I.WB_Ack::total      1404887                       (Unspecified)
system.caches.Directory_Controller.Fetch |         302      0.13%      0.13% |      233515     99.87%    100.00% (Unspecified)
system.caches.Directory_Controller.Fetch::total       233817                       (Unspecified)
system.caches.Directory_Controller.Data  |           1      0.00%      0.00% |       99486    100.00%    100.00% (Unspecified)
system.caches.Directory_Controller.Data::total        99487                       (Unspecified)
system.caches.Directory_Controller.Memory_Data |         302      0.13%      0.13% |      233515     99.87%    100.00% (Unspecified)
system.caches.Directory_Controller.Memory_Data::total       233817                       (Unspecified)
system.caches.Directory_Controller.Memory_Ack |           1      0.00%      0.00% |       99486    100.00%    100.00% (Unspecified)
system.caches.Directory_Controller.Memory_Ack::total        99487                       (Unspecified)
system.caches.Directory_Controller.CleanReplacement |         217      6.66%      6.66% |        3041     93.34%    100.00% (Unspecified)
system.caches.Directory_Controller.CleanReplacement::total         3258                       (Unspecified)
system.caches.Directory_Controller.I.Fetch |         302      0.13%      0.13% |      233515     99.87%    100.00% (Unspecified)
system.caches.Directory_Controller.I.Fetch::total       233817                       (Unspecified)
system.caches.Directory_Controller.M.Data |           1      0.00%      0.00% |       99486    100.00%    100.00% (Unspecified)
system.caches.Directory_Controller.M.Data::total        99487                       (Unspecified)
system.caches.Directory_Controller.M.CleanReplacement |         217      6.66%      6.66% |        3041     93.34%    100.00% (Unspecified)
system.caches.Directory_Controller.M.CleanReplacement::total         3258                       (Unspecified)
system.caches.Directory_Controller.IM.Memory_Data |         302      0.13%      0.13% |      233515     99.87%    100.00% (Unspecified)
system.caches.Directory_Controller.IM.Memory_Data::total       233817                       (Unspecified)
system.caches.Directory_Controller.MI.Memory_Ack |           1      0.00%      0.00% |       99486    100.00%    100.00% (Unspecified)
system.caches.Directory_Controller.MI.Memory_Ack::total        99487                       (Unspecified)
system.caches.L2Cache_Controller.L1_GET_INSTR |         303      8.26%      8.26% |        1715     46.76%     55.02% |         302      8.23%     63.25% |         191      5.21%     68.46% |         225      6.13%     74.59% |         234      6.38%     80.97% |         237      6.46%     87.43% |         461     12.57%    100.00% (Unspecified)
system.caches.L2Cache_Controller.L1_GET_INSTR::total         3668                       (Unspecified)
system.caches.L2Cache_Controller.L1_GETS |      178516     12.57%     12.57% |      177729     12.51%     25.08% |      177343     12.48%     37.56% |      177152     12.47%     50.03% |      177411     12.49%     62.52% |      177183     12.47%     75.00% |      177531     12.50%     87.49% |      177672     12.51%    100.00% (Unspecified)
system.caches.L2Cache_Controller.L1_GETS::total      1420537                       (Unspecified)
system.caches.L2Cache_Controller.L1_GETX |         227     15.08%     15.08% |         181     12.03%     27.11% |         106      7.04%     34.15% |         151     10.03%     44.19% |         195     12.96%     57.14% |         283     18.80%     75.95% |         176     11.69%     87.64% |         186     12.36%    100.00% (Unspecified)
system.caches.L2Cache_Controller.L1_GETX::total         1505                       (Unspecified)
system.caches.L2Cache_Controller.L1_UPGRADE |        2104     12.91%     12.91% |        2020     12.40%     25.31% |        1964     12.05%     37.36% |        1985     12.18%     49.55% |        2072     12.72%     62.26% |        1975     12.12%     74.38% |        2090     12.83%     87.21% |        2084     12.79%    100.00% (Unspecified)
system.caches.L2Cache_Controller.L1_UPGRADE::total        16294                       (Unspecified)
system.caches.L2Cache_Controller.L1_PUTX |      175757     12.51%     12.51% |      175661     12.50%     25.01% |      175456     12.49%     37.50% |      175545     12.50%     50.00% |      175538     12.49%     62.49% |      175694     12.51%     75.00% |      175427     12.49%     87.49% |      175809     12.51%    100.00% (Unspecified)
system.caches.L2Cache_Controller.L1_PUTX::total      1404887                       (Unspecified)
system.caches.L2Cache_Controller.L2_Replacement |       12429     12.56%     12.56% |       12393     12.52%     25.08% |       12360     12.49%     37.56% |       12373     12.50%     50.06% |       12340     12.47%     62.53% |       12390     12.52%     75.05% |       12316     12.44%     87.49% |       12382     12.51%    100.00% (Unspecified)
system.caches.L2Cache_Controller.L2_Replacement::total        98983                       (Unspecified)
system.caches.L2Cache_Controller.L2_Replacement_clean |         487     12.95%     12.95% |         482     12.81%     25.76% |         452     12.01%     37.77% |         481     12.79%     50.56% |         480     12.76%     63.32% |         459     12.20%     75.52% |         443     11.78%     87.29% |         478     12.71%    100.00% (Unspecified)
system.caches.L2Cache_Controller.L2_Replacement_clean::total         3762                       (Unspecified)
system.caches.L2Cache_Controller.Mem_Data |       29300     12.53%     12.53% |       29259     12.51%     25.04% |       29196     12.49%     37.53% |       29238     12.50%     50.04% |       29204     12.49%     62.53% |       29233     12.50%     75.03% |       29143     12.46%     87.49% |       29244     12.51%    100.00% (Unspecified)
system.caches.L2Cache_Controller.Mem_Data::total       233817                       (Unspecified)
system.caches.L2Cache_Controller.Mem_Ack |       12916     12.57%     12.57% |       12875     12.53%     25.10% |       12812     12.47%     37.57% |       12854     12.51%     50.08% |       12820     12.48%     62.56% |       12849     12.51%     75.07% |       12759     12.42%     87.48% |       12860     12.52%    100.00% (Unspecified)
system.caches.L2Cache_Controller.Mem_Ack::total       102745                       (Unspecified)
system.caches.L2Cache_Controller.WB_Data |        2176     12.94%     12.94% |        2088     12.42%     25.36% |        2039     12.13%     37.48% |        2046     12.17%     49.65% |        2136     12.70%     62.36% |        2050     12.19%     74.55% |        2124     12.63%     87.18% |        2156     12.82%    100.00% (Unspecified)
system.caches.L2Cache_Controller.WB_Data::total        16815                       (Unspecified)
system.caches.L2Cache_Controller.WB_Data_clean |          15     22.06%     22.06% |           7     10.29%     32.35% |           7     10.29%     42.65% |           2      2.94%     45.59% |          13     19.12%     64.71% |           4      5.88%     70.59% |          13     19.12%     89.71% |           7     10.29%    100.00% (Unspecified)
system.caches.L2Cache_Controller.WB_Data_clean::total           68                       (Unspecified)
system.caches.L2Cache_Controller.Ack     |         146     12.48%     12.48% |         211     18.03%     30.51% |         127     10.85%     41.37% |         121     10.34%     51.71% |         156     13.33%     65.04% |         145     12.39%     77.44% |         150     12.82%     90.26% |         114      9.74%    100.00% (Unspecified)
system.caches.L2Cache_Controller.Ack::total         1170                       (Unspecified)
system.caches.L2Cache_Controller.Ack_all |          66     13.17%     13.17% |          74     14.77%     27.94% |          52     10.38%     38.32% |          76     15.17%     53.49% |          60     11.98%     65.47% |          52     10.38%     75.85% |          68     13.57%     89.42% |          53     10.58%    100.00% (Unspecified)
system.caches.L2Cache_Controller.Ack_all::total          501                       (Unspecified)
system.caches.L2Cache_Controller.Unblock |        2115     12.92%     12.92% |        2027     12.38%     25.31% |        1971     12.04%     37.35% |        1987     12.14%     49.49% |        2098     12.82%     62.30% |        1979     12.09%     74.40% |        2099     12.82%     87.22% |        2092     12.78%    100.00% (Unspecified)
system.caches.L2Cache_Controller.Unblock::total        16368                       (Unspecified)
system.caches.L2Cache_Controller.Exclusive_Unblock |      177017     12.52%     12.52% |      176807     12.50%     25.02% |      176548     12.48%     37.50% |      176662     12.49%     50.00% |      176731     12.50%     62.49% |      176796     12.50%     74.99% |      176601     12.49%     87.48% |      177019     12.52%    100.00% (Unspecified)
system.caches.L2Cache_Controller.Exclusive_Unblock::total      1414181                       (Unspecified)
system.caches.L2Cache_Controller.NP.L1_GET_INSTR |          39     13.54%     13.54% |          49     17.01%     30.56% |          29     10.07%     40.62% |          31     10.76%     51.39% |          35     12.15%     63.54% |          35     12.15%     75.69% |          37     12.85%     88.54% |          33     11.46%    100.00% (Unspecified)
system.caches.L2Cache_Controller.NP.L1_GET_INSTR::total          288                       (Unspecified)
system.caches.L2Cache_Controller.NP.L1_GETS |       29228     12.53%     12.53% |       29184     12.51%     25.03% |       29154     12.49%     37.52% |       29190     12.51%     50.03% |       29154     12.49%     62.53% |       29171     12.50%     75.03% |       29092     12.47%     87.49% |       29181     12.51%    100.00% (Unspecified)
system.caches.L2Cache_Controller.NP.L1_GETS::total       233354                       (Unspecified)
system.caches.L2Cache_Controller.NP.L1_GETX |          33     18.86%     18.86% |          26     14.86%     33.71% |          13      7.43%     41.14% |          17      9.71%     50.86% |          15      8.57%     59.43% |          27     15.43%     74.86% |          14      8.00%     82.86% |          30     17.14%    100.00% (Unspecified)
system.caches.L2Cache_Controller.NP.L1_GETX::total          175                       (Unspecified)
system.caches.L2Cache_Controller.SS.L1_GET_INSTR |         256      7.68%      7.68% |        1655     49.64%     57.32% |         269      8.07%     65.39% |         155      4.65%     70.04% |         188      5.64%     75.67% |         194      5.82%     81.49% |         195      5.85%     87.34% |         422     12.66%    100.00% (Unspecified)
system.caches.L2Cache_Controller.SS.L1_GET_INSTR::total         3334                       (Unspecified)
system.caches.L2Cache_Controller.SS.L1_GETS |        1715     22.02%     22.02% |        1096     14.07%     36.10% |         894     11.48%     47.58% |         639      8.21%     55.79% |         849     10.90%     66.69% |         666      8.55%     75.24% |        1097     14.09%     89.33% |         831     10.67%    100.00% (Unspecified)
system.caches.L2Cache_Controller.SS.L1_GETS::total         7787                       (Unspecified)
system.caches.L2Cache_Controller.SS.L1_GETX |           2     14.29%     14.29% |           0      0.00%     14.29% |           0      0.00%     14.29% |           0      0.00%     14.29% |          11     78.57%     92.86% |           0      0.00%     92.86% |           1      7.14%    100.00% |           0      0.00%    100.00% (Unspecified)
system.caches.L2Cache_Controller.SS.L1_GETX::total           14                       (Unspecified)
system.caches.L2Cache_Controller.SS.L1_UPGRADE |        2104     12.91%     12.91% |        2020     12.40%     25.31% |        1964     12.05%     37.36% |        1985     12.18%     49.55% |        2072     12.72%     62.26% |        1975     12.12%     74.38% |        2090     12.83%     87.21% |        2084     12.79%    100.00% (Unspecified)
system.caches.L2Cache_Controller.SS.L1_UPGRADE::total        16294                       (Unspecified)
system.caches.L2Cache_Controller.SS.L2_Replacement |           2     40.00%     40.00% |           0      0.00%     40.00% |           0      0.00%     40.00% |           0      0.00%     40.00% |           0      0.00%     40.00% |           0      0.00%     40.00% |           3     60.00%    100.00% |           0      0.00%    100.00% (Unspecified)
system.caches.L2Cache_Controller.SS.L2_Replacement::total            5                       (Unspecified)
system.caches.L2Cache_Controller.SS.L2_Replacement_clean |          27     11.95%     11.95% |          39     17.26%     29.20% |          26     11.50%     40.71% |          24     10.62%     51.33% |          29     12.83%     64.16% |          27     11.95%     76.11% |          31     13.72%     89.82% |          23     10.18%    100.00% (Unspecified)
system.caches.L2Cache_Controller.SS.L2_Replacement_clean::total          226                       (Unspecified)
system.caches.L2Cache_Controller.M.L1_GET_INSTR |           4     21.05%     21.05% |           4     21.05%     42.11% |           3     15.79%     57.89% |           1      5.26%     63.16% |           0      0.00%     63.16% |           1      5.26%     68.42% |           2     10.53%     78.95% |           4     21.05%    100.00% (Unspecified)
system.caches.L2Cache_Controller.M.L1_GET_INSTR::total           19                       (Unspecified)
system.caches.L2Cache_Controller.M.L1_GETS |      145458     12.51%     12.51% |      145422     12.50%     25.01% |      145324     12.50%     37.51% |      145336     12.50%     50.00% |      145310     12.49%     62.50% |      145367     12.50%     75.00% |      145243     12.49%     87.48% |      145568     12.52%    100.00% (Unspecified)
system.caches.L2Cache_Controller.M.L1_GETS::total      1163028                       (Unspecified)
system.caches.L2Cache_Controller.M.L1_GETX |         192     14.62%     14.62% |         155     11.81%     26.43% |          93      7.08%     33.51% |         134     10.21%     43.72% |         166     12.64%     56.36% |         256     19.50%     75.86% |         161     12.26%     88.12% |         156     11.88%    100.00% (Unspecified)
system.caches.L2Cache_Controller.M.L1_GETX::total         1313                       (Unspecified)
system.caches.L2Cache_Controller.M.L2_Replacement |       12425     12.55%     12.55% |       12393     12.52%     25.08% |       12360     12.49%     37.57% |       12371     12.50%     50.07% |       12337     12.47%     62.53% |       12389     12.52%     75.05% |       12313     12.44%     87.49% |       12379     12.51%    100.00% (Unspecified)
system.caches.L2Cache_Controller.M.L2_Replacement::total        98967                       (Unspecified)
system.caches.L2Cache_Controller.M.L2_Replacement_clean |         349     12.64%     12.64% |         340     12.31%     24.95% |         325     11.77%     36.71% |         346     12.53%     49.24% |         372     13.47%     62.71% |         333     12.06%     74.76% |         340     12.31%     87.07% |         357     12.93%    100.00% (Unspecified)
system.caches.L2Cache_Controller.M.L2_Replacement_clean::total         2762                       (Unspecified)
system.caches.L2Cache_Controller.MT.L1_GETS |        2115     12.92%     12.92% |        2027     12.38%     25.31% |        1971     12.04%     37.35% |        1987     12.14%     49.49% |        2098     12.82%     62.30% |        1979     12.09%     74.40% |        2099     12.82%     87.22% |        2092     12.78%    100.00% (Unspecified)
system.caches.L2Cache_Controller.MT.L1_GETS::total        16368                       (Unspecified)
system.caches.L2Cache_Controller.MT.L1_GETX |           0      0.00%      0.00% |           0      0.00%      0.00% |           0      0.00%      0.00% |           0      0.00%      0.00% |           3    100.00%    100.00% |           0      0.00%    100.00% |           0      0.00%    100.00% |           0      0.00%    100.00% (Unspecified)
system.caches.L2Cache_Controller.MT.L1_GETX::total            3                       (Unspecified)
system.caches.L2Cache_Controller.MT.L1_PUTX |      175757     12.51%     12.51% |      175661     12.50%     25.01% |      175456     12.49%     37.50% |      175545     12.50%     50.00% |      175538     12.49%     62.49% |      175694     12.51%     75.00% |      175427     12.49%     87.49% |      175809     12.51%    100.00% (Unspecified)
system.caches.L2Cache_Controller.MT.L1_PUTX::total      1404887                       (Unspecified)
system.caches.L2Cache_Controller.MT.L2_Replacement |           2     18.18%     18.18% |           0      0.00%     18.18% |           0      0.00%     18.18% |           2     18.18%     36.36% |           3     27.27%     63.64% |           1      9.09%     72.73% |           0      0.00%     72.73% |           3     27.27%    100.00% (Unspecified)
system.caches.L2Cache_Controller.MT.L2_Replacement::total           11                       (Unspecified)
system.caches.L2Cache_Controller.MT.L2_Replacement_clean |         111     14.34%     14.34% |         103     13.31%     27.65% |         101     13.05%     40.70% |         111     14.34%     55.04% |          79     10.21%     65.25% |          99     12.79%     78.04% |          72      9.30%     87.34% |          98     12.66%    100.00% (Unspecified)
system.caches.L2Cache_Controller.MT.L2_Replacement_clean::total          774                       (Unspecified)
system.caches.L2Cache_Controller.M_I.L1_GET_INSTR |           0      0.00%      0.00% |           1    100.00%    100.00% |           0      0.00%    100.00% |           0      0.00%    100.00% |           0      0.00%    100.00% |           0      0.00%    100.00% |           0      0.00%    100.00% |           0      0.00%    100.00% (Unspecified)
system.caches.L2Cache_Controller.M_I.L1_GET_INSTR::total            1                       (Unspecified)
system.caches.L2Cache_Controller.M_I.Mem_Ack |       12916     12.57%     12.57% |       12875     12.53%     25.10% |       12812     12.47%     37.57% |       12854     12.51%     50.08% |       12820     12.48%     62.56% |       12849     12.51%     75.07% |       12759     12.42%     87.48% |       12860     12.52%    100.00% (Unspecified)
system.caches.L2Cache_Controller.M_I.Mem_Ack::total       102745                       (Unspecified)
system.caches.L2Cache_Controller.MT_I.WB_Data |           2     18.18%     18.18% |           0      0.00%     18.18% |           0      0.00%     18.18% |           2     18.18%     36.36% |           3     27.27%     63.64% |           1      9.09%     72.73% |           0      0.00%     72.73% |           3     27.27%    100.00% (Unspecified)
system.caches.L2Cache_Controller.MT_I.WB_Data::total           11                       (Unspecified)
system.caches.L2Cache_Controller.MCT_I.WB_Data |          74     14.68%     14.68% |          68     13.49%     28.17% |          75     14.88%     43.06% |          59     11.71%     54.76% |          48      9.52%     64.29% |          74     14.68%     78.97% |          38      7.54%     86.51% |          68     13.49%    100.00% (Unspecified)
system.caches.L2Cache_Controller.MCT_I.WB_Data::total          504                       (Unspecified)
system.caches.L2Cache_Controller.MCT_I.Ack_all |          37     13.70%     13.70% |          35     12.96%     26.67% |          26      9.63%     36.30% |          52     19.26%     55.56% |          31     11.48%     67.04% |          25      9.26%     76.30% |          34     12.59%     88.89% |          30     11.11%    100.00% (Unspecified)
system.caches.L2Cache_Controller.MCT_I.Ack_all::total          270                       (Unspecified)
system.caches.L2Cache_Controller.I_I.Ack |         136     11.88%     11.88% |         211     18.43%     30.31% |         127     11.09%     41.40% |         121     10.57%     51.97% |         156     13.62%     65.59% |         145     12.66%     78.25% |         135     11.79%     90.04% |         114      9.96%    100.00% (Unspecified)
system.caches.L2Cache_Controller.I_I.Ack::total         1145                       (Unspecified)
system.caches.L2Cache_Controller.I_I.Ack_all |          27     11.95%     11.95% |          39     17.26%     29.20% |          26     11.50%     40.71% |          24     10.62%     51.33% |          29     12.83%     64.16% |          27     11.95%     76.11% |          31     13.72%     89.82% |          23     10.18%    100.00% (Unspecified)
system.caches.L2Cache_Controller.I_I.Ack_all::total          226                       (Unspecified)
system.caches.L2Cache_Controller.S_I.Ack |          10     40.00%     40.00% |           0      0.00%     40.00% |           0      0.00%     40.00% |           0      0.00%     40.00% |           0      0.00%     40.00% |           0      0.00%     40.00% |          15     60.00%    100.00% |           0      0.00%    100.00% (Unspecified)
system.caches.L2Cache_Controller.S_I.Ack::total           25                       (Unspecified)
system.caches.L2Cache_Controller.S_I.Ack_all |           2     40.00%     40.00% |           0      0.00%     40.00% |           0      0.00%     40.00% |           0      0.00%     40.00% |           0      0.00%     40.00% |           0      0.00%     40.00% |           3     60.00%    100.00% |           0      0.00%    100.00% (Unspecified)
system.caches.L2Cache_Controller.S_I.Ack_all::total            5                       (Unspecified)
system.caches.L2Cache_Controller.ISS.Mem_Data |       29228     12.53%     12.53% |       29184     12.51%     25.03% |       29154     12.49%     37.52% |       29190     12.51%     50.03% |       29154     12.49%     62.53% |       29171     12.50%     75.03% |       29092     12.47%     87.49% |       29181     12.51%    100.00% (Unspecified)
system.caches.L2Cache_Controller.ISS.Mem_Data::total       233354                       (Unspecified)
system.caches.L2Cache_Controller.IS.L1_GET_INSTR |           4     15.38%     15.38% |           6     23.08%     38.46% |           1      3.85%     42.31% |           4     15.38%     57.69% |           2      7.69%     65.38% |           4     15.38%     80.77% |           3     11.54%     92.31% |           2      7.69%    100.00% (Unspecified)
system.caches.L2Cache_Controller.IS.L1_GET_INSTR::total           26                       (Unspecified)
system.caches.L2Cache_Controller.IS.Mem_Data |          39     13.54%     13.54% |          49     17.01%     30.56% |          29     10.07%     40.62% |          31     10.76%     51.39% |          35     12.15%     63.54% |          35     12.15%     75.69% |          37     12.85%     88.54% |          33     11.46%    100.00% (Unspecified)
system.caches.L2Cache_Controller.IS.Mem_Data::total          288                       (Unspecified)
system.caches.L2Cache_Controller.IM.Mem_Data |          33     18.86%     18.86% |          26     14.86%     33.71% |          13      7.43%     41.14% |          17      9.71%     50.86% |          15      8.57%     59.43% |          27     15.43%     74.86% |          14      8.00%     82.86% |          30     17.14%    100.00% (Unspecified)
system.caches.L2Cache_Controller.IM.Mem_Data::total          175                       (Unspecified)
system.caches.L2Cache_Controller.SS_MB.Exclusive_Unblock |        2106     12.91%     12.91% |        2020     12.39%     25.30% |        1964     12.04%     37.34% |        1985     12.17%     49.52% |        2083     12.77%     62.29% |        1975     12.11%     74.40% |        2091     12.82%     87.22% |        2084     12.78%    100.00% (Unspecified)
system.caches.L2Cache_Controller.SS_MB.Exclusive_Unblock::total        16308                       (Unspecified)
system.caches.L2Cache_Controller.MT_MB.Exclusive_Unblock |      174911     12.51%     12.51% |      174787     12.50%     25.02% |      174584     12.49%     37.51% |      174677     12.50%     50.00% |      174648     12.49%     62.50% |      174821     12.51%     75.00% |      174510     12.48%     87.49% |      174935     12.51%    100.00% (Unspecified)
system.caches.L2Cache_Controller.MT_MB.Exclusive_Unblock::total      1397873                       (Unspecified)
system.caches.L2Cache_Controller.MT_IIB.WB_Data |        2100     12.88%     12.88% |        2020     12.39%     25.28% |        1964     12.05%     37.33% |        1985     12.18%     49.50% |        2085     12.79%     62.29% |        1975     12.12%     74.41% |        2086     12.80%     87.21% |        2085     12.79%    100.00% (Unspecified)
system.caches.L2Cache_Controller.MT_IIB.WB_Data::total        16300                       (Unspecified)
system.caches.L2Cache_Controller.MT_IIB.WB_Data_clean |          15     22.06%     22.06% |           7     10.29%     32.35% |           7     10.29%     42.65% |           2      2.94%     45.59% |          13     19.12%     64.71% |           4      5.88%     70.59% |          13     19.12%     89.71% |           7     10.29%    100.00% (Unspecified)
system.caches.L2Cache_Controller.MT_IIB.WB_Data_clean::total           68                       (Unspecified)
system.caches.L2Cache_Controller.MT_SB.Unblock |        2115     12.92%     12.92% |        2027     12.38%     25.31% |        1971     12.04%     37.35% |        1987     12.14%     49.49% |        2098     12.82%     62.30% |        1979     12.09%     74.40% |        2099     12.82%     87.22% |        2092     12.78%    100.00% (Unspecified)
system.caches.L2Cache_Controller.MT_SB.Unblock::total        16368                       (Unspecified)
system.caches.RequestType.LD.latency_hist_seqr::bucket_size          512                       (Unspecified)
system.caches.RequestType.LD.latency_hist_seqr::max_bucket         5119                       (Unspecified)
system.caches.RequestType.LD.latency_hist_seqr::samples    104288844                       (Unspecified)
system.caches.RequestType.LD.latency_hist_seqr::mean     1.862962                       (Unspecified)
system.caches.RequestType.LD.latency_hist_seqr::gmean     1.045955                       (Unspecified)
system.caches.RequestType.LD.latency_hist_seqr::stdev    18.581726                       (Unspecified)
system.caches.RequestType.LD.latency_hist_seqr |   104267523     99.98%     99.98% |       17057      0.02%    100.00% |        2038      0.00%    100.00% |        1383      0.00%    100.00% |         627      0.00%    100.00% |         206      0.00%    100.00% |           9      0.00%    100.00% |           1      0.00%    100.00% |           0      0.00%    100.00% |           0      0.00%    100.00% (Unspecified)
system.caches.RequestType.LD.latency_hist_seqr::total    104288844                       (Unspecified)
system.caches.RequestType.LD.hit_latency_hist_seqr::bucket_size            1                       (Unspecified)
system.caches.RequestType.LD.hit_latency_hist_seqr::max_bucket            9                       (Unspecified)
system.caches.RequestType.LD.hit_latency_hist_seqr::samples    102868307                       (Unspecified)
system.caches.RequestType.LD.hit_latency_hist_seqr::mean     1.000424                       (Unspecified)
system.caches.RequestType.LD.hit_latency_hist_seqr::gmean     1.000294                       (Unspecified)
system.caches.RequestType.LD.hit_latency_hist_seqr::stdev     0.020597                       (Unspecified)
system.caches.RequestType.LD.hit_latency_hist_seqr |           0      0.00%      0.00% |   102824648     99.96%     99.96% |       43659      0.04%    100.00% |           0      0.00%    100.00% |           0      0.00%    100.00% |           0      0.00%    100.00% |           0      0.00%    100.00% |           0      0.00%    100.00% |           0      0.00%    100.00% |           0      0.00%    100.00% (Unspecified)
system.caches.RequestType.LD.hit_latency_hist_seqr::total    102868307                       (Unspecified)
system.caches.RequestType.LD.miss_latency_hist_seqr::bucket_size          512                       (Unspecified)
system.caches.RequestType.LD.miss_latency_hist_seqr::max_bucket         5119                       (Unspecified)
system.caches.RequestType.LD.miss_latency_hist_seqr::samples      1420537                       (Unspecified)
system.caches.RequestType.LD.miss_latency_hist_seqr::mean    64.323659                       (Unspecified)
system.caches.RequestType.LD.miss_latency_hist_seqr::gmean    26.502224                       (Unspecified)
system.caches.RequestType.LD.miss_latency_hist_seqr::stdev   146.265413                       (Unspecified)
system.caches.RequestType.LD.miss_latency_hist_seqr |     1399216     98.50%     98.50% |       17057      1.20%     99.70% |        2038      0.14%     99.84% |        1383      0.10%     99.94% |         627      0.04%     99.98% |         206      0.01%    100.00% |           9      0.00%    100.00% |           1      0.00%    100.00% |           0      0.00%    100.00% |           0      0.00%    100.00% (Unspecified)
system.caches.RequestType.LD.miss_latency_hist_seqr::total      1420537                       (Unspecified)
system.caches.RequestType.ST.latency_hist_seqr::bucket_size          256                       (Unspecified)
system.caches.RequestType.ST.latency_hist_seqr::max_bucket         2559                       (Unspecified)
system.caches.RequestType.ST.latency_hist_seqr::samples     20943676                       (Unspecified)
system.caches.RequestType.ST.latency_hist_seqr::mean     1.190668                       (Unspecified)
system.caches.RequestType.ST.latency_hist_seqr::gmean     1.131410                       (Unspecified)
system.caches.RequestType.ST.latency_hist_seqr::stdev     1.250419                       (Unspecified)
system.caches.RequestType.ST.latency_hist_seqr |    20943619    100.00%    100.00% |          42      0.00%    100.00% |           9      0.00%    100.00% |           3      0.00%    100.00% |           0      0.00%    100.00% |           1      0.00%    100.00% |           0      0.00%    100.00% |           0      0.00%    100.00% |           2      0.00%    100.00% |           0      0.00%    100.00% (Unspecified)
system.caches.RequestType.ST.latency_hist_seqr::total     20943676                       (Unspecified)
system.caches.RequestType.ST.hit_latency_hist_seqr::bucket_size          128                       (Unspecified)
system.caches.RequestType.ST.hit_latency_hist_seqr::max_bucket         1279                       (Unspecified)
system.caches.RequestType.ST.hit_latency_hist_seqr::samples     20926694                       (Unspecified)
system.caches.RequestType.ST.hit_latency_hist_seqr::mean     1.174947                       (Unspecified)
system.caches.RequestType.ST.hit_latency_hist_seqr::gmean     1.128844                       (Unspecified)
system.caches.RequestType.ST.hit_latency_hist_seqr::stdev     0.445581                       (Unspecified)
system.caches.RequestType.ST.hit_latency_hist_seqr |    20926689    100.00%    100.00% |           2      0.00%    100.00% |           0      0.00%    100.00% |           1      0.00%    100.00% |           1      0.00%    100.00% |           1      0.00%    100.00% |           0      0.00%    100.00% |           0      0.00%    100.00% |           0      0.00%    100.00% |           0      0.00%    100.00% (Unspecified)
system.caches.RequestType.ST.hit_latency_hist_seqr::total     20926694                       (Unspecified)
system.caches.RequestType.ST.miss_latency_hist_seqr::bucket_size          256                       (Unspecified)
system.caches.RequestType.ST.miss_latency_hist_seqr::max_bucket         2559                       (Unspecified)
system.caches.RequestType.ST.miss_latency_hist_seqr::samples        16982                       (Unspecified)
system.caches.RequestType.ST.miss_latency_hist_seqr::mean    20.563302                       (Unspecified)
system.caches.RequestType.ST.miss_latency_hist_seqr::gmean    18.572359                       (Unspecified)
system.caches.RequestType.ST.miss_latency_hist_seqr::stdev    36.167866                       (Unspecified)
system.caches.RequestType.ST.miss_latency_hist_seqr |       16928     99.68%     99.68% |          41      0.24%     99.92% |           7      0.04%     99.96% |           3      0.02%     99.98% |           0      0.00%     99.98% |           1      0.01%     99.99% |           0      0.00%     99.99% |           0      0.00%     99.99% |           2      0.01%    100.00% |           0      0.00%    100.00% (Unspecified)
system.caches.RequestType.ST.miss_latency_hist_seqr::total        16982                       (Unspecified)
system.caches.RequestType.IFETCH.latency_hist_seqr::bucket_size          256                       (Unspecified)
system.caches.RequestType.IFETCH.latency_hist_seqr::max_bucket         2559                       (Unspecified)
system.caches.RequestType.IFETCH.latency_hist_seqr::samples     86697828                       (Unspecified)
system.caches.RequestType.IFETCH.latency_hist_seqr::mean     1.001493                       (Unspecified)
system.caches.RequestType.IFETCH.latency_hist_seqr::gmean     1.000120                       (Unspecified)
system.caches.RequestType.IFETCH.latency_hist_seqr::stdev     0.568118                       (Unspecified)
system.caches.RequestType.IFETCH.latency_hist_seqr |    86697634    100.00%    100.00% |         190      0.00%    100.00% |           3      0.00%    100.00% |           0      0.00%    100.00% |           0      0.00%    100.00% |           1      0.00%    100.00% |           0      0.00%    100.00% |           0      0.00%    100.00% |           0      0.00%    100.00% |           0      0.00%    100.00% (Unspecified)
system.caches.RequestType.IFETCH.latency_hist_seqr::total     86697828                       (Unspecified)
system.caches.RequestType.IFETCH.hit_latency_hist_seqr::bucket_size            1                       (Unspecified)
system.caches.RequestType.IFETCH.hit_latency_hist_seqr::max_bucket            9                       (Unspecified)
system.caches.RequestType.IFETCH.hit_latency_hist_seqr::samples     86694161                       (Unspecified)
system.caches.RequestType.IFETCH.hit_latency_hist_seqr::mean            1                       (Unspecified)
system.caches.RequestType.IFETCH.hit_latency_hist_seqr::gmean            1                       (Unspecified)
system.caches.RequestType.IFETCH.hit_latency_hist_seqr |           0      0.00%      0.00% |    86694161    100.00%    100.00% |           0      0.00%    100.00% |           0      0.00%    100.00% |           0      0.00%    100.00% |           0      0.00%    100.00% |           0      0.00%    100.00% |           0      0.00%    100.00% |           0      0.00%    100.00% |           0      0.00%    100.00% (Unspecified)
system.caches.RequestType.IFETCH.hit_latency_hist_seqr::total     86694161                       (Unspecified)
system.caches.RequestType.IFETCH.miss_latency_hist_seqr::bucket_size          256                       (Unspecified)
system.caches.RequestType.IFETCH.miss_latency_hist_seqr::max_bucket         2559                       (Unspecified)
system.caches.RequestType.IFETCH.miss_latency_hist_seqr::samples         3667                       (Unspecified)
system.caches.RequestType.IFETCH.miss_latency_hist_seqr::mean    36.288792                       (Unspecified)
system.caches.RequestType.IFETCH.miss_latency_hist_seqr::gmean    17.068253                       (Unspecified)
system.caches.RequestType.IFETCH.miss_latency_hist_seqr::stdev    79.921045                       (Unspecified)
system.caches.RequestType.IFETCH.miss_latency_hist_seqr |        3473     94.71%     94.71% |         190      5.18%     99.89% |           3      0.08%     99.97% |           0      0.00%     99.97% |           0      0.00%     99.97% |           1      0.03%    100.00% |           0      0.00%    100.00% |           0      0.00%    100.00% |           0      0.00%    100.00% |           0      0.00%    100.00% (Unspecified)
system.caches.RequestType.IFETCH.miss_latency_hist_seqr::total         3667                       (Unspecified)
system.caches.RequestType.RMW_Read.latency_hist_seqr::bucket_size          128                       (Unspecified)
system.caches.RequestType.RMW_Read.latency_hist_seqr::max_bucket         1279                       (Unspecified)
system.caches.RequestType.RMW_Read.latency_hist_seqr::samples        13504                       (Unspecified)
system.caches.RequestType.RMW_Read.latency_hist_seqr::mean     3.323978                       (Unspecified)
system.caches.RequestType.RMW_Read.latency_hist_seqr::gmean     1.351240                       (Unspecified)
system.caches.RequestType.RMW_Read.latency_hist_seqr::stdev    24.546159                       (Unspecified)
system.caches.RequestType.RMW_Read.latency_hist_seqr |       13461     99.68%     99.68% |           9      0.07%     99.75% |          17      0.13%     99.87% |           6      0.04%     99.92% |           5      0.04%     99.96% |           5      0.04%     99.99% |           1      0.01%    100.00% |           0      0.00%    100.00% |           0      0.00%    100.00% |           0      0.00%    100.00% (Unspecified)
system.caches.RequestType.RMW_Read.latency_hist_seqr::total        13504                       (Unspecified)
system.caches.RequestType.RMW_Read.hit_latency_hist_seqr::bucket_size            4                       (Unspecified)
system.caches.RequestType.RMW_Read.hit_latency_hist_seqr::max_bucket           39                       (Unspecified)
system.caches.RequestType.RMW_Read.hit_latency_hist_seqr::samples        12870                       (Unspecified)
system.caches.RequestType.RMW_Read.hit_latency_hist_seqr::mean     1.281119                       (Unspecified)
system.caches.RequestType.RMW_Read.hit_latency_hist_seqr::gmean     1.175572                       (Unspecified)
system.caches.RequestType.RMW_Read.hit_latency_hist_seqr::stdev     1.197912                       (Unspecified)
system.caches.RequestType.RMW_Read.hit_latency_hist_seqr |       12832     99.70%     99.70% |           0      0.00%     99.70% |           1      0.01%     99.71% |           1      0.01%     99.72% |           5      0.04%     99.76% |          22      0.17%     99.93% |           6      0.05%     99.98% |           3      0.02%    100.00% |           0      0.00%    100.00% |           0      0.00%    100.00% (Unspecified)
system.caches.RequestType.RMW_Read.hit_latency_hist_seqr::total        12870                       (Unspecified)
system.caches.RequestType.RMW_Read.miss_latency_hist_seqr::bucket_size          128                       (Unspecified)
system.caches.RequestType.RMW_Read.miss_latency_hist_seqr::max_bucket         1279                       (Unspecified)
system.caches.RequestType.RMW_Read.miss_latency_hist_seqr::samples          634                       (Unspecified)
system.caches.RequestType.RMW_Read.miss_latency_hist_seqr::mean    44.793375                       (Unspecified)
system.caches.RequestType.RMW_Read.miss_latency_hist_seqr::gmean    22.831169                       (Unspecified)
system.caches.RequestType.RMW_Read.miss_latency_hist_seqr::stdev   104.958217                       (Unspecified)
system.caches.RequestType.RMW_Read.miss_latency_hist_seqr |         591     93.22%     93.22% |           9      1.42%     94.64% |          17      2.68%     97.32% |           6      0.95%     98.26% |           5      0.79%     99.05% |           5      0.79%     99.84% |           1      0.16%    100.00% |           0      0.00%    100.00% |           0      0.00%    100.00% |           0      0.00%    100.00% (Unspecified)
system.caches.RequestType.RMW_Read.miss_latency_hist_seqr::total          634                       (Unspecified)
system.caches.RequestType.Locked_RMW_Read.latency_hist_seqr::bucket_size          128                       (Unspecified)
system.caches.RequestType.Locked_RMW_Read.latency_hist_seqr::max_bucket         1279                       (Unspecified)
system.caches.RequestType.Locked_RMW_Read.latency_hist_seqr::samples         4617                       (Unspecified)
system.caches.RequestType.Locked_RMW_Read.latency_hist_seqr::mean     2.334633                       (Unspecified)
system.caches.RequestType.Locked_RMW_Read.latency_hist_seqr::gmean     1.126027                       (Unspecified)
system.caches.RequestType.Locked_RMW_Read.latency_hist_seqr::stdev    20.033767                       (Unspecified)
system.caches.RequestType.Locked_RMW_Read.latency_hist_seqr |        4610     99.85%     99.85% |           1      0.02%     99.87% |           3      0.06%     99.94% |           0      0.00%     99.94% |           0      0.00%     99.94% |           3      0.06%    100.00% |           0      0.00%    100.00% |           0      0.00%    100.00% |           0      0.00%    100.00% |           0      0.00%    100.00% (Unspecified)
system.caches.RequestType.Locked_RMW_Read.latency_hist_seqr::total         4617                       (Unspecified)
system.caches.RequestType.Locked_RMW_Read.hit_latency_hist_seqr::bucket_size            1                       (Unspecified)
system.caches.RequestType.Locked_RMW_Read.hit_latency_hist_seqr::max_bucket            9                       (Unspecified)
system.caches.RequestType.Locked_RMW_Read.hit_latency_hist_seqr::samples         4434                       (Unspecified)
system.caches.RequestType.Locked_RMW_Read.hit_latency_hist_seqr::mean            1                       (Unspecified)
system.caches.RequestType.Locked_RMW_Read.hit_latency_hist_seqr::gmean            1                       (Unspecified)
system.caches.RequestType.Locked_RMW_Read.hit_latency_hist_seqr |           0      0.00%      0.00% |        4434    100.00%    100.00% |           0      0.00%    100.00% |           0      0.00%    100.00% |           0      0.00%    100.00% |           0      0.00%    100.00% |           0      0.00%    100.00% |           0      0.00%    100.00% |           0      0.00%    100.00% |           0      0.00%    100.00% (Unspecified)
system.caches.RequestType.Locked_RMW_Read.hit_latency_hist_seqr::total         4434                       (Unspecified)
system.caches.RequestType.Locked_RMW_Read.miss_latency_hist_seqr::bucket_size          128                       (Unspecified)
system.caches.RequestType.Locked_RMW_Read.miss_latency_hist_seqr::max_bucket         1279                       (Unspecified)
system.caches.RequestType.Locked_RMW_Read.miss_latency_hist_seqr::samples          183                       (Unspecified)
system.caches.RequestType.Locked_RMW_Read.miss_latency_hist_seqr::mean    34.672131                       (Unspecified)
system.caches.RequestType.Locked_RMW_Read.miss_latency_hist_seqr::gmean    19.978172                       (Unspecified)
system.caches.RequestType.Locked_RMW_Read.miss_latency_hist_seqr::stdev    95.312566                       (Unspecified)
system.caches.RequestType.Locked_RMW_Read.miss_latency_hist_seqr |         176     96.17%     96.17% |           1      0.55%     96.72% |           3      1.64%     98.36% |           0      0.00%     98.36% |           0      0.00%     98.36% |           3      1.64%    100.00% |           0      0.00%    100.00% |           0      0.00%    100.00% |           0      0.00%    100.00% |           0      0.00%    100.00% (Unspecified)
system.caches.RequestType.Locked_RMW_Read.miss_latency_hist_seqr::total          183                       (Unspecified)
system.caches.RequestType.Locked_RMW_Write.latency_hist_seqr::bucket_size            1                       (Unspecified)
system.caches.RequestType.Locked_RMW_Write.latency_hist_seqr::max_bucket            9                       (Unspecified)
system.caches.RequestType.Locked_RMW_Write.latency_hist_seqr::samples         4617                       (Unspecified)
system.caches.RequestType.Locked_RMW_Write.latency_hist_seqr::mean            1                       (Unspecified)
system.caches.RequestType.Locked_RMW_Write.latency_hist_seqr::gmean            1                       (Unspecified)
system.caches.RequestType.Locked_RMW_Write.latency_hist_seqr |           0      0.00%      0.00% |        4617    100.00%    100.00% |           0      0.00%    100.00% |           0      0.00%    100.00% |           0      0.00%    100.00% |           0      0.00%    100.00% |           0      0.00%    100.00% |           0      0.00%    100.00% |           0      0.00%    100.00% |           0      0.00%    100.00% (Unspecified)
system.caches.RequestType.Locked_RMW_Write.latency_hist_seqr::total         4617                       (Unspecified)
system.caches.RequestType.Locked_RMW_Write.hit_latency_hist_seqr::bucket_size            1                       (Unspecified)
system.caches.RequestType.Locked_RMW_Write.hit_latency_hist_seqr::max_bucket            9                       (Unspecified)
system.caches.RequestType.Locked_RMW_Write.hit_latency_hist_seqr::samples         4617                       (Unspecified)
system.caches.RequestType.Locked_RMW_Write.hit_latency_hist_seqr::mean            1                       (Unspecified)
system.caches.RequestType.Locked_RMW_Write.hit_latency_hist_seqr::gmean            1                       (Unspecified)
system.caches.RequestType.Locked_RMW_Write.hit_latency_hist_seqr |           0      0.00%      0.00% |        4617    100.00%    100.00% |           0      0.00%    100.00% |           0      0.00%    100.00% |           0      0.00%    100.00% |           0      0.00%    100.00% |           0      0.00%    100.00% |           0      0.00%    100.00% |           0      0.00%    100.00% |           0      0.00%    100.00% (Unspecified)
system.caches.RequestType.Locked_RMW_Write.hit_latency_hist_seqr::total         4617                       (Unspecified)
system.caches.controllers0.fullyBusyCycles          795                       # cycles for which number of transistions == max transitions (Unspecified)
system.caches.controllers0.delayHistogram::samples        35567                       # delay_histogram (Unspecified)
system.caches.controllers0.delayHistogram::mean     0.171957                       # delay_histogram (Unspecified)
system.caches.controllers0.delayHistogram::stdev     1.205951                       # delay_histogram (Unspecified)
system.caches.controllers0.delayHistogram::0-7        35448     99.67%     99.67% # delay_histogram (Unspecified)
system.caches.controllers0.delayHistogram::8-15           68      0.19%     99.86% # delay_histogram (Unspecified)
system.caches.controllers0.delayHistogram::16-23           38      0.11%     99.96% # delay_histogram (Unspecified)
system.caches.controllers0.delayHistogram::24-31            7      0.02%     99.98% # delay_histogram (Unspecified)
system.caches.controllers0.delayHistogram::32-39            2      0.01%     99.99% # delay_histogram (Unspecified)
system.caches.controllers0.delayHistogram::40-47            2      0.01%     99.99% # delay_histogram (Unspecified)
system.caches.controllers0.delayHistogram::48-55            1      0.00%    100.00% # delay_histogram (Unspecified)
system.caches.controllers0.delayHistogram::56-63            1      0.00%    100.00% # delay_histogram (Unspecified)
system.caches.controllers0.delayHistogram::total        35567                       # delay_histogram (Unspecified)
system.caches.controllers0.L1Dcache.m_demand_hits        64402                       # Number of cache demand hits (Unspecified)
system.caches.controllers0.L1Dcache.m_demand_misses       123196                       # Number of cache demand misses (Unspecified)
system.caches.controllers0.L1Dcache.m_demand_accesses       187598                       # Number of cache demand accesses (Unspecified)
system.caches.controllers0.L1Icache.m_demand_hits        28226                       # Number of cache demand hits (Unspecified)
system.caches.controllers0.L1Icache.m_demand_misses          999                       # Number of cache demand misses (Unspecified)
system.caches.controllers0.L1Icache.m_demand_accesses        29225                       # Number of cache demand accesses (Unspecified)
system.caches.controllers0.mandatoryQueue.m_msg_count       216823                       # Number of messages passed the buffer (Count)
system.caches.controllers0.mandatoryQueue.m_buf_msgs     0.000000                       # Average number of messages in buffer ((Count/Tick))
system.caches.controllers0.mandatoryQueue.m_stall_time        15800                       # Total number of ticks messages were stalled in this buffer (Tick)
system.caches.controllers0.mandatoryQueue.m_avg_stall_time     0.072870                       # Average stall ticks per message ((Tick/Count))
[...]
system.o3Cpu7.fetch.nisnDist::6                  3756      2.55%     87.62% # Number of instructions fetched each cycle (Total) (Count)
system.o3Cpu7.fetch.nisnDist::7                  1925      1.31%     88.93% # Number of instructions fetched each cycle (Total) (Count)
system.o3Cpu7.fetch.nisnDist::8                  1129      0.77%     89.69% # Number of instructions fetched each cycle (Total) (Count)
system.o3Cpu7.fetch.nisnDist::9                  1174      0.80%     90.49% # Number of instructions fetched each cycle (Total) (Count)
system.o3Cpu7.fetch.nisnDist::10                 1215      0.83%     91.32% # Number of instructions fetched each cycle (Total) (Count)
system.o3Cpu7.fetch.nisnDist::11                 1357      0.92%     92.24% # Number of instructions fetched each cycle (Total) (Count)
system.o3Cpu7.fetch.nisnDist::12                 1261      0.86%     93.10% # Number of instructions fetched each cycle (Total) (Count)
system.o3Cpu7.fetch.nisnDist::13                 1094      0.74%     93.84% # Number of instructions fetched each cycle (Total) (Count)
system.o3Cpu7.fetch.nisnDist::14                  754      0.51%     94.36% # Number of instructions fetched each cycle (Total) (Count)
system.o3Cpu7.fetch.nisnDist::15                  708      0.48%     94.84% # Number of instructions fetched each cycle (Total) (Count)
system.o3Cpu7.fetch.nisnDist::16                 7589      5.16%    100.00% # Number of instructions fetched each cycle (Total) (Count)
system.o3Cpu7.fetch.nisnDist::overflows             0      0.00%    100.00% # Number of instructions fetched each cycle (Total) (Count)
system.o3Cpu7.fetch.nisnDist::min_value             0                       # Number of instructions fetched each cycle (Total) (Count)
system.o3Cpu7.fetch.nisnDist::max_value            16                       # Number of instructions fetched each cycle (Total) (Count)
system.o3Cpu7.fetch.nisnDist::total            147019                       # Number of instructions fetched each cycle (Total) (Count)
system.o3Cpu7.fetch.branchRate               0.301745                       # Number of branch fetches per cycle (Ratio)
system.o3Cpu7.fetch.rate                     1.021914                       # Number of inst fetches per cycle ((Count/Cycle))
system.o3Cpu7.iew.idleCycles                        0                       # Number of cycles IEW is idle (Cycle)
system.o3Cpu7.iew.squashCycles                   1790                       # Number of cycles IEW is squashing (Cycle)
system.o3Cpu7.iew.blockCycles                    2859                       # Number of cycles IEW is blocking (Cycle)
system.o3Cpu7.iew.unblockCycles                   967                       # Number of cycles IEW is unblocking (Cycle)
system.o3Cpu7.iew.dispatchedInsts              249232                       # Number of instructions dispatched to IQ (Count)
system.o3Cpu7.iew.dispSquashedInsts               369                       # Number of squashed instructions skipped by dispatch (Count)
system.o3Cpu7.iew.dispLoadInsts                 36029                       # Number of dispatched load instructions (Count)
system.o3Cpu7.iew.dispStoreInsts                21183                       # Number of dispatched store instructions (Count)
system.o3Cpu7.iew.dispNonSpecInsts               2453                       # Number of dispatched non-speculative instructions (Count)
system.o3Cpu7.iew.iqFullEvents                     45                       # Number of times the IQ has become full, causing a stall (Count)
system.o3Cpu7.iew.lsqFullEvents                   908                       # Number of times the LSQ has become full, causing a stall (Count)
system.o3Cpu7.iew.memOrderViolationEvents          440                       # Number of memory order violations (Count)
system.o3Cpu7.iew.predictedTakenIncorrect          589                       # Number of branches that were predicted taken incorrectly (Count)
system.o3Cpu7.iew.predictedNotTakenIncorrect          743                       # Number of branches that were predicted not taken incorrectly (Count)
system.o3Cpu7.iew.branchMispredicts              1332                       # Number of branch mispredicts detected at execute (Count)
system.o3Cpu7.iew.instsToCommit                229437                       # Cumulative count of insts sent to commit (Count)
system.o3Cpu7.iew.writebackCount               229135                       # Cumulative count of insts written-back (Count)
system.o3Cpu7.iew.producerInst                 159370                       # Number of instructions producing a value (Count)
system.o3Cpu7.iew.consumerInst                 273957                       # Number of instructions consuming a value (Count)
system.o3Cpu7.iew.wbRate                     1.556021                       # Insts written-back per cycle ((Count/Cycle))
system.o3Cpu7.iew.wbFanout                   0.581734                       # Average fanout of values written-back ((Count/Count))
system.o3Cpu7.interrupts.clk_domain.clock         3200                       # Clock period in ticks (Tick)
system.o3Cpu7.lsq0.forwLoads                     5224                       # Number of loads that had data forwarded from stores (Count)
system.o3Cpu7.lsq0.squashedLoads                 5747                       # Number of loads squashed (Count)
system.o3Cpu7.lsq0.ignoredResponses                17                       # Number of memory responses ignored because the instruction is squashed (Count)
system.o3Cpu7.lsq0.memOrderViolation              440                       # Number of memory ordering violations (Count)
system.o3Cpu7.lsq0.squashedStores                4034                       # Number of stores squashed (Count)
system.o3Cpu7.lsq0.rescheduledLoads                88                       # Number of loads that were rescheduled (Count)
system.o3Cpu7.lsq0.blockedByCache                   0                       # Number of times an access to memory failed due to the cache being blocked (Count)
system.o3Cpu7.lsq0.loadToUse::samples           30282                       # Distribution of cycle latency between the first time a load is issued and its completion (Unspecified)
system.o3Cpu7.lsq0.loadToUse::mean           3.542170                       # Distribution of cycle latency between the first time a load is issued and its completion (Unspecified)
system.o3Cpu7.lsq0.loadToUse::stdev         13.187351                       # Distribution of cycle latency between the first time a load is issued and its completion (Unspecified)
system.o3Cpu7.lsq0.loadToUse::0-9               29558     97.61%     97.61% # Distribution of cycle latency between the first time a load is issued and its completion (Unspecified)
system.o3Cpu7.lsq0.loadToUse::10-19               471      1.56%     99.16% # Distribution of cycle latency between the first time a load is issued and its completion (Unspecified)
system.o3Cpu7.lsq0.loadToUse::20-29               169      0.56%     99.72% # Distribution of cycle latency between the first time a load is issued and its completion (Unspecified)
system.o3Cpu7.lsq0.loadToUse::30-39                61      0.20%     99.92% # Distribution of cycle latency between the first time a load is issued and its completion (Unspecified)
system.o3Cpu7.lsq0.loadToUse::190-199               2      0.01%     99.93% # Distribution of cycle latency between the first time a load is issued and its completion (Unspecified)
system.o3Cpu7.lsq0.loadToUse::210-219               5      0.02%     99.95% # Distribution of cycle latency between the first time a load is issued and its completion (Unspecified)
system.o3Cpu7.lsq0.loadToUse::230-239               1      0.00%     99.95% # Distribution of cycle latency between the first time a load is issued and its completion (Unspecified)
system.o3Cpu7.lsq0.loadToUse::250-259               1      0.00%     99.95% # Distribution of cycle latency between the first time a load is issued and its completion (Unspecified)
system.o3Cpu7.lsq0.loadToUse::260-269               1      0.00%     99.96% # Distribution of cycle latency between the first time a load is issued and its completion (Unspecified)
system.o3Cpu7.lsq0.loadToUse::290-299               2      0.01%     99.96% # Distribution of cycle latency between the first time a load is issued and its completion (Unspecified)
system.o3Cpu7.lsq0.loadToUse::overflows            11      0.04%    100.00% # Distribution of cycle latency between the first time a load is issued and its completion (Unspecified)
system.o3Cpu7.lsq0.loadToUse::min_value             2                       # Distribution of cycle latency between the first time a load is issued and its completion (Unspecified)
system.o3Cpu7.lsq0.loadToUse::max_value           939                       # Distribution of cycle latency between the first time a load is issued and its completion (Unspecified)
system.o3Cpu7.lsq0.loadToUse::total             30282                       # Distribution of cycle latency between the first time a load is issued and its completion (Unspecified)
system.o3Cpu7.mmu.dtb.rdAccesses                34201                       # TLB accesses on read requests (Count)
system.o3Cpu7.mmu.dtb.wrAccesses                18606                       # TLB accesses on write requests (Count)
system.o3Cpu7.mmu.dtb.rdMisses                    151                       # TLB misses on read requests (Count)
system.o3Cpu7.mmu.dtb.wrMisses                      2                       # TLB misses on write requests (Count)
system.o3Cpu7.mmu.dtb.walker.power_state.pwrStateResidencyTicks::UNDEFINED  53799860600                       # Cumulative time (in ticks) in various power states (Tick)
system.o3Cpu7.mmu.itb.rdAccesses                    0                       # TLB accesses on read requests (Count)
system.o3Cpu7.mmu.itb.wrAccesses                23278                       # TLB accesses on write requests (Count)
system.o3Cpu7.mmu.itb.rdMisses                      0                       # TLB misses on read requests (Count)
system.o3Cpu7.mmu.itb.wrMisses                      6                       # TLB misses on write requests (Count)
system.o3Cpu7.mmu.itb.walker.power_state.pwrStateResidencyTicks::UNDEFINED  53799860600                       # Cumulative time (in ticks) in various power states (Tick)
system.o3Cpu7.power_state.numTransitions          106                       # Number of power state transitions (Count)
system.o3Cpu7.power_state.ticksClkGated::samples           53                       # Distribution of time spent in the clock gated state (Tick)
system.o3Cpu7.power_state.ticksClkGated::mean 991426418.867925                       # Distribution of time spent in the clock gated state (Tick)
system.o3Cpu7.power_state.ticksClkGated::stdev 58333691.067897                       # Distribution of time spent in the clock gated state (Tick)
system.o3Cpu7.power_state.ticksClkGated::1000-5e+10           53    100.00%    100.00% # Distribution of time spent in the clock gated state (Tick)
system.o3Cpu7.power_state.ticksClkGated::min_value    574767200                       # Distribution of time spent in the clock gated state (Tick)
system.o3Cpu7.power_state.ticksClkGated::max_value    999527200                       # Distribution of time spent in the clock gated state (Tick)
system.o3Cpu7.power_state.ticksClkGated::total           53                       # Distribution of time spent in the clock gated state (Tick)
system.o3Cpu7.power_state.pwrStateResidencyTicks::ON     29440800                       # Cumulative time (in ticks) in various power states (Tick)
system.o3Cpu7.power_state.pwrStateResidencyTicks::CLK_GATED  52545600200                       # Cumulative time (in ticks) in various power states (Tick)
system.o3Cpu7.power_state.pwrStateResidencyTicks::OFF   1224819600                       # Cumulative time (in ticks) in various power states (Tick)
system.o3Cpu7.rename.squashCycles                1790                       # Number of cycles rename is squashing (Cycle)
system.o3Cpu7.rename.idleCycles                 28087                       # Number of cycles rename is idle (Cycle)
system.o3Cpu7.rename.blockCycles                 4658                       # Number of cycles rename is blocking (Cycle)
system.o3Cpu7.rename.serializeStallCycles        80310                       # count of cycles rename stalled for serializing inst (Cycle)
system.o3Cpu7.rename.runCycles                  27528                       # Number of cycles rename is running (Cycle)
system.o3Cpu7.rename.unblockCycles               4641                       # Number of cycles rename is unblocking (Cycle)
system.o3Cpu7.rename.renamedInsts              254092                       # Number of instructions processed by rename (Count)
system.o3Cpu7.rename.ROBFullEvents                 16                       # Number of times rename has blocked due to ROB full (Count)
system.o3Cpu7.rename.IQFullEvents                1671                       # Number of times rename has blocked due to IQ full (Count)
system.o3Cpu7.rename.LQFullEvents                  19                       # Number of times rename has blocked due to LQ full (Count)
system.o3Cpu7.rename.SQFullEvents                1083                       # Number of times rename has blocked due to SQ full (Count)
system.o3Cpu7.rename.renamedOperands           369952                       # Number of destination operands rename has renamed (Count)
system.o3Cpu7.rename.lookups                   769385                       # Number of register rename lookups that rename has made (Count)
system.o3Cpu7.rename.intLookups                310250                       # Number of integer rename lookups (Count)
system.o3Cpu7.rename.committedMaps             298829                       # Number of HB maps that are committed (Count)
system.o3Cpu7.rename.undoneMaps                 71123                       # Number of HB maps that are undone due to squashing (Count)
system.o3Cpu7.rename.serializing                 2414                       # count of serializing insts renamed (Count)
system.o3Cpu7.rename.tempSerializing             2421                       # count of temporary serializing insts renamed (Count)
system.o3Cpu7.rename.skidInsts                  34378                       # count of insts added to the skid buffer (Count)
system.o3Cpu7.rob.reads                        386013                       # The number of ROB reads (Count)
system.o3Cpu7.rob.writes                       498455                       # The number of ROB writes (Count)
system.o3Cpu7.thread_0.numInsts                 87281                       # Number of Instructions committed (Count)
system.o3Cpu7.thread_0.numOps                  205012                       # Number of Ops committed (Count)
system.o3Cpu7.thread_0.numMemRefs                   0                       # Number of Memory References (Count)
system.pc.bad_addr.power_state.pwrStateResidencyTicks::UNDEFINED  53799860600                       # Cumulative time (in ticks) in various power states (Tick)
system.pc.com_1.power_state.pwrStateResidencyTicks::UNDEFINED  53799860600                       # Cumulative time (in ticks) in various power states (Tick)
system.pc.default_bus.power_state.pwrStateResidencyTicks::UNDEFINED  53799860600                       # Cumulative time (in ticks) in various power states (Tick)
system.pc.empty_isa.power_state.pwrStateResidencyTicks::UNDEFINED  53799860600                       # Cumulative time (in ticks) in various power states (Tick)
system.pc.fake_com_2.power_state.pwrStateResidencyTicks::UNDEFINED  53799860600                       # Cumulative time (in ticks) in various power states (Tick)
system.pc.fake_com_3.power_state.pwrStateResidencyTicks::UNDEFINED  53799860600                       # Cumulative time (in ticks) in various power states (Tick)
system.pc.fake_com_4.power_state.pwrStateResidencyTicks::UNDEFINED  53799860600                       # Cumulative time (in ticks) in various power states (Tick)
system.pc.fake_floppy.power_state.pwrStateResidencyTicks::UNDEFINED  53799860600                       # Cumulative time (in ticks) in various power states (Tick)
system.pc.pci_host.power_state.pwrStateResidencyTicks::UNDEFINED  53799860600                       # Cumulative time (in ticks) in various power states (Tick)
system.pc.south_bridge.cmos.power_state.pwrStateResidencyTicks::UNDEFINED  53799860600                       # Cumulative time (in ticks) in various power states (Tick)
system.pc.south_bridge.dma1.power_state.pwrStateResidencyTicks::UNDEFINED  53799860600                       # Cumulative time (in ticks) in various power states (Tick)
system.pc.south_bridge.ide.disks0.IdeDisk.dmaReadFullPages            0                       # Number of full page size DMA reads (not PRD). (Count)
system.pc.south_bridge.ide.disks0.IdeDisk.dmaReadBytes            0                       # Number of bytes transfered via DMA reads (not PRD). (Byte)
system.pc.south_bridge.ide.disks0.IdeDisk.dmaReadTxs            0                       # Number of DMA read transactions (not PRD). (Count)
system.pc.south_bridge.ide.disks0.IdeDisk.dmaWriteFullPages            0                       # Number of full page size DMA writes. (Count)
system.pc.south_bridge.ide.disks0.IdeDisk.dmaWriteBytes            0                       # Number of bytes transfered via DMA writes. (Byte)
system.pc.south_bridge.ide.disks0.IdeDisk.dmaWriteTxs            0                       # Number of DMA write transactions. (Count)
system.pc.south_bridge.ide.disks1.IdeDisk.dmaReadFullPages            0                       # Number of full page size DMA reads (not PRD). (Count)
system.pc.south_bridge.ide.disks1.IdeDisk.dmaReadBytes            0                       # Number of bytes transfered via DMA reads (not PRD). (Byte)
system.pc.south_bridge.ide.disks1.IdeDisk.dmaReadTxs            0                       # Number of DMA read transactions (not PRD). (Count)
system.pc.south_bridge.ide.disks1.IdeDisk.dmaWriteFullPages            0                       # Number of full page size DMA writes. (Count)
system.pc.south_bridge.ide.disks1.IdeDisk.dmaWriteBytes            0                       # Number of bytes transfered via DMA writes. (Byte)
system.pc.south_bridge.ide.disks1.IdeDisk.dmaWriteTxs            0                       # Number of DMA write transactions. (Count)
system.pc.south_bridge.ide.power_state.pwrStateResidencyTicks::UNDEFINED  53799860600                       # Cumulative time (in ticks) in various power states (Tick)
system.pc.south_bridge.io_apic.power_state.pwrStateResidencyTicks::UNDEFINED  53799860600                       # Cumulative time (in ticks) in various power states (Tick)
system.pc.south_bridge.keyboard.power_state.pwrStateResidencyTicks::UNDEFINED  53799860600                       # Cumulative time (in ticks) in various power states (Tick)
system.pc.south_bridge.pic1.power_state.pwrStateResidencyTicks::UNDEFINED  53799860600                       # Cumulative time (in ticks) in various power states (Tick)
system.pc.south_bridge.pic2.power_state.pwrStateResidencyTicks::UNDEFINED  53799860600                       # Cumulative time (in ticks) in various power states (Tick)
system.pc.south_bridge.pit.power_state.pwrStateResidencyTicks::UNDEFINED  53799860600                       # Cumulative time (in ticks) in various power states (Tick)
system.pc.south_bridge.speaker.power_state.pwrStateResidencyTicks::UNDEFINED  53799860600                       # Cumulative time (in ticks) in various power states (Tick)
system.workload.inst.arm                            0                       # number of arm instructions executed (Count)
system.workload.inst.quiesce                        0                       # number of quiesce instructions executed (Count)

---------- End Simulation Statistics   ----------
