
---------- Begin Simulation Statistics ----------
simSeconds                                   0.041669                       # Number of seconds simulated (Second)
simTicks                                  41669020200                       # Number of ticks simulated (Tick)
finalTick                                250734886995800                       # Number of ticks from beginning of simulation (restored from checkpoints and never reset) (Tick)
simFreq                                  1000000000000                       # The number of ticks per simulated second ((Tick/Second))
hostSeconds                                   6272.06                       # Real time elapsed on the host (Second)
hostTickRate                                  6643591                       # The number of ticks simulated per host second (ticks/s) ((Tick/Second))
hostMemory                                   19870816                       # Number of bytes of host memory used (Byte)
simInsts                                     56476694                       # Number of instructions simulated (Count)
simOps                                       91746222                       # Number of ops (including micro ops) simulated (Count)
hostInstRate                                     9004                       # Simulator instruction rate (inst/s) ((Count/Second))
hostOpRate                                      14628                       # Simulator op (including micro ops) rate (op/s) ((Count/Second))
system.caches.delayHistogram::bucket_size           16                       # delay histogram for all message (Unspecified)
system.caches.delayHistogram::max_bucket          159                       # delay histogram for all message (Unspecified)
system.caches.delayHistogram::samples        34889638                       # delay histogram for all message (Unspecified)
system.caches.delayHistogram::mean           0.671097                       # delay histogram for all message (Unspecified)
system.caches.delayHistogram::stdev          2.304702                       # delay histogram for all message (Unspecified)
system.caches.delayHistogram             |    34832828     99.84%     99.84% |       56331      0.16%    100.00% |         384      0.00%    100.00% |          60      0.00%    100.00% |          26      0.00%    100.00% |           8      0.00%    100.00% |           1      0.00%    100.00% |           0      0.00%    100.00% |           0      0.00%    100.00% |           0      0.00%    100.00% # delay histogram for all message (Unspecified)
system.caches.delayHistogram::total          34889638                       # delay histogram for all message (Unspecified)
system.caches.m_outstandReqHistSeqr::bucket_size            2                       (Unspecified)
system.caches.m_outstandReqHistSeqr::max_bucket           19                       (Unspecified)
system.caches.m_outstandReqHistSeqr::samples     32370737                       (Unspecified)
system.caches.m_outstandReqHistSeqr::mean     3.892944                       (Unspecified)
system.caches.m_outstandReqHistSeqr::gmean     2.590053                       (Unspecified)
system.caches.m_outstandReqHistSeqr::stdev     3.494973                       (Unspecified)
system.caches.m_outstandReqHistSeqr      |    12965514     40.05%     40.05% |     6480993     20.02%     60.07% |     3799201     11.74%     71.81% |     3092743      9.55%     81.37% |     2851758      8.81%     90.17% |     2360140      7.29%     97.47% |      424879      1.31%     98.78% |      143523      0.44%     99.22% |      251986      0.78%    100.00% |           0      0.00%    100.00% (Unspecified)
system.caches.m_outstandReqHistSeqr::total     32370737                       (Unspecified)
system.caches.m_latencyHistSeqr::bucket_size          512                       (Unspecified)
system.caches.m_latencyHistSeqr::max_bucket         5119                       (Unspecified)
system.caches.m_latencyHistSeqr::samples     32374124                       (Unspecified)
system.caches.m_latencyHistSeqr::mean       96.497178                       (Unspecified)
system.caches.m_latencyHistSeqr::gmean       2.660920                       (Unspecified)
system.caches.m_latencyHistSeqr::stdev     256.369801                       (Unspecified)
system.caches.m_latencyHistSeqr          |    29676746     91.67%     91.67% |     2464685      7.61%     99.28% |      148404      0.46%     99.74% |        6873      0.02%     99.76% |       42282      0.13%     99.89% |       33246      0.10%     99.99% |        1813      0.01%    100.00% |          73      0.00%    100.00% |           2      0.00%    100.00% |           0      0.00%    100.00% (Unspecified)
system.caches.m_latencyHistSeqr::total       32374124                       (Unspecified)
system.caches.m_hitLatencyHistSeqr::bucket_size          512                       (Unspecified)
system.caches.m_hitLatencyHistSeqr::max_bucket         5119                       (Unspecified)
system.caches.m_hitLatencyHistSeqr::samples     27357406                       (Unspecified)
system.caches.m_hitLatencyHistSeqr::mean     1.011047                       (Unspecified)
system.caches.m_hitLatencyHistSeqr::gmean     1.000224                       (Unspecified)
system.caches.m_hitLatencyHistSeqr::stdev     3.267260                       (Unspecified)
system.caches.m_hitLatencyHistSeqr       |    27357150    100.00%    100.00% |         191      0.00%    100.00% |          43      0.00%    100.00% |          14      0.00%    100.00% |           3      0.00%    100.00% |           4      0.00%    100.00% |           1      0.00%    100.00% |           0      0.00%    100.00% |           0      0.00%    100.00% |           0      0.00%    100.00% (Unspecified)
system.caches.m_hitLatencyHistSeqr::total     27357406                       (Unspecified)
system.caches.m_missLatencyHistSeqr::bucket_size          512                       (Unspecified)
system.caches.m_missLatencyHistSeqr::max_bucket         5119                       (Unspecified)
system.caches.m_missLatencyHistSeqr::samples      5016718                       (Unspecified)
system.caches.m_missLatencyHistSeqr::mean   617.206709                       (Unspecified)
system.caches.m_missLatencyHistSeqr::gmean   552.464591                       (Unspecified)
system.caches.m_missLatencyHistSeqr::stdev   321.287429                       (Unspecified)
system.caches.m_missLatencyHistSeqr      |     2319596     46.24%     46.24% |     2464494     49.13%     95.36% |      148361      2.96%     98.32% |        6859      0.14%     98.46% |       42279      0.84%     99.30% |       33242      0.66%     99.96% |        1812      0.04%    100.00% |          73      0.00%    100.00% |           2      0.00%    100.00% |           0      0.00%    100.00% (Unspecified)
system.caches.m_missLatencyHistSeqr::total      5016718                       (Unspecified)
system.caches.delayVCHist.vnet_0::bucket_size           16                       # delay histogram for vnet_0 (Unspecified)
system.caches.delayVCHist.vnet_0::max_bucket          159                       # delay histogram for vnet_0 (Unspecified)
system.caches.delayVCHist.vnet_0::samples     14910559                       # delay histogram for vnet_0 (Unspecified)
system.caches.delayVCHist.vnet_0::mean       1.522837                       # delay histogram for vnet_0 (Unspecified)
system.caches.delayVCHist.vnet_0::stdev      3.299816                       # delay histogram for vnet_0 (Unspecified)
system.caches.delayVCHist.vnet_0         |    14854938     99.63%     99.63% |       55221      0.37%    100.00% |         305      0.00%    100.00% |          60      0.00%    100.00% |          26      0.00%    100.00% |           8      0.00%    100.00% |           1      0.00%    100.00% |           0      0.00%    100.00% |           0      0.00%    100.00% |           0      0.00%    100.00% # delay histogram for vnet_0 (Unspecified)
system.caches.delayVCHist.vnet_0::total      14910559                       # delay histogram for vnet_0 (Unspecified)
system.caches.delayVCHist.vnet_1::bucket_size            8                       # delay histogram for vnet_1 (Unspecified)
system.caches.delayVCHist.vnet_1::max_bucket           79                       # delay histogram for vnet_1 (Unspecified)
system.caches.delayVCHist.vnet_1::samples     19918908                       # delay histogram for vnet_1 (Unspecified)
system.caches.delayVCHist.vnet_1::mean       0.035543                       # delay histogram for vnet_1 (Unspecified)
system.caches.delayVCHist.vnet_1::stdev      0.452232                       # delay histogram for vnet_1 (Unspecified)
system.caches.delayVCHist.vnet_1         |    19904922     99.93%     99.93% |       12797      0.06%     99.99% |         940      0.00%    100.00% |         170      0.00%    100.00% |          72      0.00%    100.00% |           7      0.00%    100.00% |           0      0.00%    100.00% |           0      0.00%    100.00% |           0      0.00%    100.00% |           0      0.00%    100.00% # delay histogram for vnet_1 (Unspecified)
system.caches.delayVCHist.vnet_1::total      19918908                       # delay histogram for vnet_1 (Unspecified)
system.caches.delayVCHist.vnet_2::bucket_size            1                       # delay histogram for vnet_2 (Unspecified)
system.caches.delayVCHist.vnet_2::max_bucket            9                       # delay histogram for vnet_2 (Unspecified)
system.caches.delayVCHist.vnet_2::samples        60171                       # delay histogram for vnet_2 (Unspecified)
system.caches.delayVCHist.vnet_2::mean       0.000366                       # delay histogram for vnet_2 (Unspecified)
system.caches.delayVCHist.vnet_2::stdev      0.027039                       # delay histogram for vnet_2 (Unspecified)
system.caches.delayVCHist.vnet_2         |       60160     99.98%     99.98% |           0      0.00%     99.98% |          11      0.02%    100.00% |           0      0.00%    100.00% |           0      0.00%    100.00% |           0      0.00%    100.00% |           0      0.00%    100.00% |           0      0.00%    100.00% |           0      0.00%    100.00% |           0      0.00%    100.00% # delay histogram for vnet_2 (Unspecified)
system.caches.delayVCHist.vnet_2::total         60171                       # delay histogram for vnet_2 (Unspecified)
system.caches.L1Cache_Controller.Load    |      685983     12.69%     12.69% |      697662     12.90%     25.59% |      672207     12.43%     38.02% |      663609     12.27%     50.30% |      660590     12.22%     62.51% |      686809     12.70%     75.22% |      682447     12.62%     87.84% |      657546     12.16%    100.00% (Unspecified)
system.caches.L1Cache_Controller.Load::total      5406853                       (Unspecified)
system.caches.L1Cache_Controller.Ifetch  |      823494     12.47%     12.47% |      892564     13.52%     26.00% |      835918     12.66%     38.66% |      800837     12.13%     50.79% |      785761     11.90%     62.69% |      823802     12.48%     75.17% |      852689     12.92%     88.09% |      786340     11.91%    100.00% (Unspecified)
system.caches.L1Cache_Controller.Ifetch::total      6601405                       (Unspecified)
system.caches.L1Cache_Controller.Store   |     2534030     12.44%     12.44% |     2577633     12.66%     25.10% |     2564769     12.59%     37.69% |     2528990     12.42%     50.11% |     2539166     12.47%     62.58% |     2526450     12.41%     74.98% |     2554476     12.54%     87.53% |     2540365     12.47%    100.00% (Unspecified)
system.caches.L1Cache_Controller.Store::total     20365879                       (Unspecified)
system.caches.L1Cache_Controller.Inv     |        6617     11.17%     11.17% |        7122     12.02%     23.18% |        7536     12.72%     35.90% |        7474     12.61%     48.51% |        7965     13.44%     61.95% |        7271     12.27%     74.22% |        7450     12.57%     86.79% |        7826     13.21%    100.00% (Unspecified)
system.caches.L1Cache_Controller.Inv::total        59261                       (Unspecified)
system.caches.L1Cache_Controller.L1_Replacement |      619674     12.43%     12.43% |      626793     12.57%     25.01% |      627358     12.59%     37.59% |      620169     12.44%     50.03% |      624152     12.52%     62.56% |      618265     12.40%     74.96% |      623620     12.51%     87.47% |      624506     12.53%    100.00% (Unspecified)
system.caches.L1Cache_Controller.L1_Replacement::total      4984537                       (Unspecified)
system.caches.L1Cache_Controller.Fwd_GETX |           0      0.00%      0.00% |          10    100.00%    100.00% |           0      0.00%    100.00% |           0      0.00%    100.00% |           0      0.00%    100.00% |           0      0.00%    100.00% |           0      0.00%    100.00% |           0      0.00%    100.00% (Unspecified)
system.caches.L1Cache_Controller.Fwd_GETX::total           10                       (Unspecified)
system.caches.L1Cache_Controller.Fwd_GETS |         581     64.56%     64.56% |         218     24.22%     88.78% |          39      4.33%     93.11% |          17      1.89%     95.00% |          13      1.44%     96.44% |           8      0.89%     97.33% |           7      0.78%     98.11% |          17      1.89%    100.00% (Unspecified)
system.caches.L1Cache_Controller.Fwd_GETS::total          900                       (Unspecified)
system.caches.L1Cache_Controller.Data    |          89    100.00%    100.00% |           0      0.00%    100.00% |           0      0.00%    100.00% |           0      0.00%    100.00% |           0      0.00%    100.00% |           0      0.00%    100.00% |           0      0.00%    100.00% |           0      0.00%    100.00% (Unspecified)
system.caches.L1Cache_Controller.Data::total           89                       (Unspecified)
system.caches.L1Cache_Controller.Data_Exclusive |      298517     12.42%     12.42% |      300223     12.50%     24.92% |      302185     12.58%     37.50% |      299587     12.47%     49.97% |      302195     12.58%     62.55% |      297821     12.40%     74.94% |      299670     12.47%     87.41% |      302367     12.59%    100.00% (Unspecified)
system.caches.L1Cache_Controller.Data_Exclusive::total      2402565                       (Unspecified)
system.caches.L1Cache_Controller.DataS_fromL1 |          51      5.67%      5.67% |         407     45.22%     50.89% |         263     29.22%     80.11% |          78      8.67%     88.78% |          35      3.89%     92.67% |          26      2.89%     95.56% |          24      2.67%     98.22% |          16      1.78%    100.00% (Unspecified)
system.caches.L1Cache_Controller.DataS_fromL1::total          900                       (Unspecified)
system.caches.L1Cache_Controller.Data_all_Acks |      325668     12.46%     12.46% |      330126     12.63%     25.10% |      328852     12.59%     37.68% |      324448     12.42%     50.10% |      325790     12.47%     62.57% |      324307     12.41%     74.98% |      327795     12.54%     87.52% |      325998     12.48%    100.00% (Unspecified)
system.caches.L1Cache_Controller.Data_all_Acks::total      2612984                       (Unspecified)
system.caches.L1Cache_Controller.Ack     |         936    100.00%    100.00% |           0      0.00%    100.00% |           0      0.00%    100.00% |           0      0.00%    100.00% |           0      0.00%    100.00% |           0      0.00%    100.00% |           0      0.00%    100.00% |           0      0.00%    100.00% (Unspecified)
system.caches.L1Cache_Controller.Ack::total          936                       (Unspecified)
system.caches.L1Cache_Controller.Ack_all |         269    100.00%    100.00% |           0      0.00%    100.00% |           0      0.00%    100.00% |           0      0.00%    100.00% |           0      0.00%    100.00% |           0      0.00%    100.00% |           0      0.00%    100.00% |           0      0.00%    100.00% (Unspecified)
system.caches.L1Cache_Controller.Ack_all::total          269                       (Unspecified)
system.caches.L1Cache_Controller.WB_Ack  |      614565     12.45%     12.45% |      621208     12.58%     25.03% |      621342     12.58%     37.61% |      614307     12.44%     50.06% |      617643     12.51%     62.57% |      612403     12.40%     74.97% |      617594     12.51%     87.48% |      618122     12.52%    100.00% (Unspecified)
system.caches.L1Cache_Controller.WB_Ack::total      4937184                       (Unspecified)
system.caches.L1Cache_Controller.NP.Load |      301271     12.42%     12.42% |      303012     12.49%     24.91% |      305137     12.58%     37.49% |      302541     12.47%     49.96% |      305169     12.58%     62.53% |      300871     12.40%     74.94% |      302684     12.48%     87.41% |      305370     12.59%    100.00% (Unspecified)
system.caches.L1Cache_Controller.NP.Load::total      2426055                       (Unspecified)
system.caches.L1Cache_Controller.NP.Ifetch |        1452     23.52%     23.52% |         624     10.11%     33.63% |         688     11.15%     44.78% |         629     10.19%     54.97% |         687     11.13%     66.09% |         708     11.47%     77.56% |         701     11.36%     88.92% |         684     11.08%    100.00% (Unspecified)
system.caches.L1Cache_Controller.NP.Ifetch::total         6173                       (Unspecified)
system.caches.L1Cache_Controller.NP.Store |      317133     12.42%     12.42% |      323234     12.66%     25.08% |      321600     12.60%     37.68% |      317101     12.42%     50.10% |      318363     12.47%     62.57% |      316749     12.41%     74.98% |      320294     12.55%     87.52% |      318521     12.48%    100.00% (Unspecified)
system.caches.L1Cache_Controller.NP.Store::total      2552995                       (Unspecified)
system.caches.L1Cache_Controller.NP.Inv  |        1134     12.94%     12.94% |        1047     11.95%     24.89% |        1079     12.31%     37.20% |        1082     12.35%     49.54% |        1089     12.43%     61.97% |        1124     12.83%     74.79% |        1104     12.60%     87.39% |        1105     12.61%    100.00% (Unspecified)
system.caches.L1Cache_Controller.NP.Inv::total         8764                       (Unspecified)
system.caches.L1Cache_Controller.I.Load  |           0      0.00%      0.00% |         110     33.54%     33.54% |         104     31.71%     65.24% |          60     18.29%     83.54% |          20      6.10%     89.63% |          17      5.18%     94.82% |           9      2.74%     97.56% |           8      2.44%    100.00% (Unspecified)
system.caches.L1Cache_Controller.I.Load::total          328                       (Unspecified)
system.caches.L1Cache_Controller.I.Ifetch |        4471     14.43%     14.43% |        3777     12.19%     26.62% |        3773     12.18%     38.79% |        3783     12.21%     51.00% |        3781     12.20%     63.20% |        3800     12.26%     75.46% |        3803     12.27%     87.73% |        3801     12.27%    100.00% (Unspecified)
system.caches.L1Cache_Controller.I.Ifetch::total        30989                       (Unspecified)
system.caches.L1Cache_Controller.I.Store |           0      0.00%      0.00% |           1      9.09%      9.09% |           0      0.00%      9.09% |           0      0.00%      9.09% |           0      0.00%      9.09% |          10     90.91%    100.00% |           0      0.00%    100.00% |           0      0.00%    100.00% (Unspecified)
system.caches.L1Cache_Controller.I.Store::total           11                       (Unspecified)
system.caches.L1Cache_Controller.I.L1_Replacement |         930      5.02%      5.02% |        2118     11.43%     16.45% |        2502     13.50%     29.95% |        2444     13.19%     43.14% |        2997     16.17%     59.31% |        2244     12.11%     71.42% |        2458     13.26%     84.69% |        2838     15.31%    100.00% (Unspecified)
system.caches.L1Cache_Controller.I.L1_Replacement::total        18531                       (Unspecified)
system.caches.L1Cache_Controller.S.Load  |       12506      9.11%      9.11% |       22971     16.73%     25.84% |       25562     18.62%     44.46% |       21617     15.75%     60.20% |       14919     10.87%     71.07% |       13456      9.80%     80.87% |       12780      9.31%     90.18% |       13482      9.82%    100.00% (Unspecified)
system.caches.L1Cache_Controller.S.Load::total       137293                       (Unspecified)
system.caches.L1Cache_Controller.S.Ifetch |      817571     12.45%     12.45% |      888163     13.53%     25.99% |      831457     12.67%     38.65% |      796425     12.13%     50.78% |      781293     11.90%     62.69% |      819294     12.48%     75.17% |      848185     12.92%     88.09% |      781855     11.91%    100.00% (Unspecified)
system.caches.L1Cache_Controller.S.Ifetch::total      6564243                       (Unspecified)
system.caches.L1Cache_Controller.S.Store |         180    100.00%    100.00% |           0      0.00%    100.00% |           0      0.00%    100.00% |           0      0.00%    100.00% |           0      0.00%    100.00% |           0      0.00%    100.00% |           0      0.00%    100.00% |           0      0.00%    100.00% (Unspecified)
system.caches.L1Cache_Controller.S.Store::total          180                       (Unspecified)
system.caches.L1Cache_Controller.S.Inv   |        4728     14.41%     14.41% |        4065     12.39%     26.80% |        4044     12.33%     39.13% |        4036     12.30%     51.43% |        3981     12.14%     63.57% |        3984     12.14%     75.71% |        3984     12.14%     87.86% |        3983     12.14%    100.00% (Unspecified)
system.caches.L1Cache_Controller.S.Inv::total        32805                       (Unspecified)
system.caches.L1Cache_Controller.S.L1_Replacement |        4179     14.50%     14.50% |        3467     12.03%     26.53% |        3514     12.19%     38.72% |        3418     11.86%     50.58% |        3512     12.19%     62.76% |        3618     12.55%     75.32% |        3568     12.38%     87.70% |        3546     12.30%    100.00% (Unspecified)
system.caches.L1Cache_Controller.S.L1_Replacement::total        28822                       (Unspecified)
system.caches.L1Cache_Controller.E.Load  |      353696     12.84%     12.84% |      361094     13.11%     25.95% |      331216     12.02%     37.98% |      329266     11.95%     49.93% |      330721     12.01%     61.94% |      362615     13.16%     75.10% |      356977     12.96%     88.06% |      328822     11.94%    100.00% (Unspecified)
system.caches.L1Cache_Controller.E.Load::total      2754407                       (Unspecified)
system.caches.L1Cache_Controller.E.Store |         729     17.95%     17.95% |         466     11.47%     29.42% |         464     11.42%     40.84% |         475     11.69%     52.54% |         484     11.92%     64.45% |         481     11.84%     76.29% |         479     11.79%     88.08% |         484     11.92%    100.00% (Unspecified)
system.caches.L1Cache_Controller.E.Store::total         4062                       (Unspecified)
system.caches.L1Cache_Controller.E.Inv   |         105      1.38%      1.38% |         818     10.74%     12.12% |        1022     13.42%     25.53% |        1050     13.78%     39.31% |        1090     14.31%     53.62% |        1380     18.11%     71.74% |         985     12.93%     84.67% |        1168     15.33%    100.00% (Unspecified)
system.caches.L1Cache_Controller.E.Inv::total         7618                       (Unspecified)
system.caches.L1Cache_Controller.E.L1_Replacement |      293413     12.31%     12.31% |      298291     12.51%     24.82% |      300413     12.60%     37.42% |      297798     12.49%     49.91% |      300413     12.60%     62.51% |      295673     12.40%     74.91% |      297931     12.50%     87.40% |      300383     12.60%    100.00% (Unspecified)
system.caches.L1Cache_Controller.E.L1_Replacement::total      2384315                       (Unspecified)
system.caches.L1Cache_Controller.E.Fwd_GETX |           0      0.00%      0.00% |          10    100.00%    100.00% |           0      0.00%    100.00% |           0      0.00%    100.00% |           0      0.00%    100.00% |           0      0.00%    100.00% |           0      0.00%    100.00% |           0      0.00%    100.00% (Unspecified)
system.caches.L1Cache_Controller.E.Fwd_GETX::total           10                       (Unspecified)
system.caches.L1Cache_Controller.E.Fwd_GETS |         268     45.66%     45.66% |         218     37.14%     82.79% |          39      6.64%     89.44% |          17      2.90%     92.33% |          13      2.21%     94.55% |           8      1.36%     95.91% |           7      1.19%     97.10% |          17      2.90%    100.00% (Unspecified)
system.caches.L1Cache_Controller.E.Fwd_GETS::total          587                       (Unspecified)
system.caches.L1Cache_Controller.M.Load  |       18510     20.85%     20.85% |       10475     11.80%     32.65% |       10188     11.48%     44.13% |       10125     11.41%     55.53% |        9761     11.00%     66.53% |        9850     11.10%     77.63% |        9997     11.26%     88.89% |        9864     11.11%    100.00% (Unspecified)
system.caches.L1Cache_Controller.M.Load::total        88770                       (Unspecified)
system.caches.L1Cache_Controller.M.Store |     2215988     12.44%     12.44% |     2253932     12.66%     25.10% |     2242705     12.59%     37.69% |     2211414     12.42%     50.11% |     2220319     12.47%     62.58% |     2209210     12.41%     74.98% |     2233703     12.54%     87.53% |     2221360     12.47%    100.00% (Unspecified)
system.caches.L1Cache_Controller.M.Store::total     17808631                       (Unspecified)
system.caches.L1Cache_Controller.M.Inv   |         650      6.48%      6.48% |        1188     11.85%     18.33% |        1372     13.68%     32.01% |        1295     12.91%     44.92% |        1800     17.95%     62.87% |         781      7.79%     70.66% |        1375     13.71%     84.37% |        1568     15.63%    100.00% (Unspecified)
system.caches.L1Cache_Controller.M.Inv::total        10029                       (Unspecified)
system.caches.L1Cache_Controller.M.L1_Replacement |      321152     12.58%     12.58% |      322917     12.65%     25.23% |      320929     12.57%     37.80% |      316509     12.40%     50.20% |      317230     12.43%     62.63% |      316730     12.41%     75.03% |      319663     12.52%     87.55% |      317739     12.45%    100.00% (Unspecified)
system.caches.L1Cache_Controller.M.L1_Replacement::total      2552869                       (Unspecified)
system.caches.L1Cache_Controller.M.Fwd_GETS |         313    100.00%    100.00% |           0      0.00%    100.00% |           0      0.00%    100.00% |           0      0.00%    100.00% |           0      0.00%    100.00% |           0      0.00%    100.00% |           0      0.00%    100.00% |           0      0.00%    100.00% (Unspecified)
system.caches.L1Cache_Controller.M.Fwd_GETS::total          313                       (Unspecified)
system.caches.L1Cache_Controller.IS.Inv  |           0      0.00%      0.00% |           4      9.09%      9.09% |          19     43.18%     52.27% |          11     25.00%     77.27% |           4      9.09%     86.36% |           2      4.55%     90.91% |           2      4.55%     95.45% |           2      4.55%    100.00% (Unspecified)
system.caches.L1Cache_Controller.IS.Inv::total           44                       (Unspecified)
system.caches.L1Cache_Controller.IS.Data_Exclusive |      298517     12.42%     12.42% |      300223     12.50%     24.92% |      302185     12.58%     37.50% |      299587     12.47%     49.97% |      302195     12.58%     62.55% |      297821     12.40%     74.94% |      299670     12.47%     87.41% |      302367     12.59%    100.00% (Unspecified)
system.caches.L1Cache_Controller.IS.Data_Exclusive::total      2402565                       (Unspecified)
system.caches.L1Cache_Controller.IS.DataS_fromL1 |          51      5.67%      5.67% |         406     45.16%     50.83% |         263     29.25%     80.09% |          78      8.68%     88.77% |          35      3.89%     92.66% |          26      2.89%     95.55% |          24      2.67%     98.22% |          16      1.78%    100.00% (Unspecified)
system.caches.L1Cache_Controller.IS.DataS_fromL1::total          899                       (Unspecified)
system.caches.L1Cache_Controller.IS.Data_all_Acks |        8625     14.37%     14.37% |        6889     11.48%     25.84% |        7234     12.05%     37.89% |        7337     12.22%     50.12% |        7423     12.37%     62.48% |        7547     12.57%     75.05% |        7500     12.49%     87.55% |        7476     12.45%    100.00% (Unspecified)
system.caches.L1Cache_Controller.IS.Data_all_Acks::total        60031                       (Unspecified)
system.caches.L1Cache_Controller.IM.Data |          89    100.00%    100.00% |           0      0.00%    100.00% |           0      0.00%    100.00% |           0      0.00%    100.00% |           0      0.00%    100.00% |           0      0.00%    100.00% |           0      0.00%    100.00% |           0      0.00%    100.00% (Unspecified)
system.caches.L1Cache_Controller.IM.Data::total           89                       (Unspecified)
system.caches.L1Cache_Controller.IM.Data_all_Acks |      317043     12.42%     12.42% |      323234     12.66%     25.08% |      321599     12.60%     37.68% |      317100     12.42%     50.10% |      318363     12.47%     62.57% |      316758     12.41%     74.98% |      320293     12.55%     87.52% |      318520     12.48%    100.00% (Unspecified)
system.caches.L1Cache_Controller.IM.Data_all_Acks::total      2552910                       (Unspecified)
system.caches.L1Cache_Controller.SM.Ack  |         936    100.00%    100.00% |           0      0.00%    100.00% |           0      0.00%    100.00% |           0      0.00%    100.00% |           0      0.00%    100.00% |           0      0.00%    100.00% |           0      0.00%    100.00% |           0      0.00%    100.00% (Unspecified)
system.caches.L1Cache_Controller.SM.Ack::total          936                       (Unspecified)
system.caches.L1Cache_Controller.SM.Ack_all |         269    100.00%    100.00% |           0      0.00%    100.00% |           0      0.00%    100.00% |           0      0.00%    100.00% |           0      0.00%    100.00% |           0      0.00%    100.00% |           0      0.00%    100.00% |           0      0.00%    100.00% (Unspecified)
system.caches.L1Cache_Controller.SM.Ack_all::total          269                       (Unspecified)
system.caches.L1Cache_Controller.IS_I.DataS_fromL1 |           0      0.00%      0.00% |           1    100.00%    100.00% |           0      0.00%    100.00% |           0      0.00%    100.00% |           0      0.00%    100.00% |           0      0.00%    100.00% |           0      0.00%    100.00% |           0      0.00%    100.00% (Unspecified)
system.caches.L1Cache_Controller.IS_I.DataS_fromL1::total            1                       (Unspecified)
system.caches.L1Cache_Controller.IS_I.Data_all_Acks |           0      0.00%      0.00% |           3      6.98%      6.98% |          19     44.19%     51.16% |          11     25.58%     76.74% |           4      9.30%     86.05% |           2      4.65%     90.70% |           2      4.65%     95.35% |           2      4.65%    100.00% (Unspecified)
system.caches.L1Cache_Controller.IS_I.Data_all_Acks::total           43                       (Unspecified)
system.caches.L1Cache_Controller.M_I.Inv |           0      0.00%      0.00% |           0      0.00%      0.00% |           0      0.00%      0.00% |           0      0.00%      0.00% |           1    100.00%    100.00% |           0      0.00%    100.00% |           0      0.00%    100.00% |           0      0.00%    100.00% (Unspecified)
system.caches.L1Cache_Controller.M_I.Inv::total            1                       (Unspecified)
system.caches.L1Cache_Controller.M_I.WB_Ack |      614565     12.45%     12.45% |      621208     12.58%     25.03% |      621342     12.58%     37.61% |      614307     12.44%     50.06% |      617642     12.51%     62.57% |      612403     12.40%     74.97% |      617594     12.51%     87.48% |      618122     12.52%    100.00% (Unspecified)
system.caches.L1Cache_Controller.M_I.WB_Ack::total      4937183                       (Unspecified)
system.caches.L1Cache_Controller.SINK_WB_ACK.WB_Ack |           0      0.00%      0.00% |           0      0.00%      0.00% |           0      0.00%      0.00% |           0      0.00%      0.00% |           1    100.00%    100.00% |           0      0.00%    100.00% |           0      0.00%    100.00% |           0      0.00%    100.00% (Unspecified)
system.caches.L1Cache_Controller.SINK_WB_ACK.WB_Ack::total            1                       (Unspecified)
system.caches.Directory_Controller.Fetch |        5718      0.12%      0.12% |     4946711     99.88%    100.00% (Unspecified)
system.caches.Directory_Controller.Fetch::total      4952429                       (Unspecified)
system.caches.Directory_Controller.Data  |         263      0.01%      0.01% |     2587974     99.99%    100.00% (Unspecified)
system.caches.Directory_Controller.Data::total      2588237                       (Unspecified)
system.caches.Directory_Controller.Memory_Data |        5718      0.12%      0.12% |     4946698     99.88%    100.00% (Unspecified)
system.caches.Directory_Controller.Memory_Data::total      4952416                       (Unspecified)
system.caches.Directory_Controller.Memory_Ack |         263      0.01%      0.01% |     2587974     99.99%    100.00% (Unspecified)
system.caches.Directory_Controller.Memory_Ack::total      2588237                       (Unspecified)
system.caches.Directory_Controller.CleanReplacement |        5475      0.23%      0.23% |     2358717     99.77%    100.00% (Unspecified)
system.caches.Directory_Controller.CleanReplacement::total      2364192                       (Unspecified)
system.caches.Directory_Controller.I.Fetch |        5718      0.12%      0.12% |     4946711     99.88%    100.00% (Unspecified)
system.caches.Directory_Controller.I.Fetch::total      4952429                       (Unspecified)
system.caches.Directory_Controller.M.Data |         263      0.01%      0.01% |     2587974     99.99%    100.00% (Unspecified)
system.caches.Directory_Controller.M.Data::total      2588237                       (Unspecified)
system.caches.Directory_Controller.M.CleanReplacement |        5475      0.23%      0.23% |     2358717     99.77%    100.00% (Unspecified)
system.caches.Directory_Controller.M.CleanReplacement::total      2364192                       (Unspecified)
system.caches.Directory_Controller.IM.Memory_Data |        5718      0.12%      0.12% |     4946698     99.88%    100.00% (Unspecified)
system.caches.Directory_Controller.IM.Memory_Data::total      4952416                       (Unspecified)
system.caches.Directory_Controller.MI.Memory_Ack |         263      0.01%      0.01% |     2587974     99.99%    100.00% (Unspecified)
system.caches.Directory_Controller.MI.Memory_Ack::total      2588237                       (Unspecified)
system.caches.L2Cache_Controller.L1_GET_INSTR |        4665     12.55%     12.55% |        5308     14.28%     26.83% |        4124     11.09%     37.92% |        3371      9.07%     46.99% |        4639     12.48%     59.47% |        5330     14.34%     73.81% |        5009     13.47%     87.28% |        4728     12.72%    100.00% (Unspecified)
system.caches.L2Cache_Controller.L1_GET_INSTR::total        37174                       (Unspecified)
system.caches.L2Cache_Controller.L1_GETS |      306131     12.61%     12.61% |      304388     12.54%     25.16% |      303715     12.51%     37.67% |      302537     12.47%     50.14% |      302261     12.45%     62.59% |      302090     12.45%     75.04% |      302194     12.45%     87.49% |      303535     12.51%    100.00% (Unspecified)
system.caches.L2Cache_Controller.L1_GETS::total      2426851                       (Unspecified)
system.caches.L2Cache_Controller.L1_GETX |      319500     12.51%     12.51% |      319409     12.51%     25.03% |      318182     12.46%     37.49% |      318811     12.49%     49.98% |      318709     12.48%     62.46% |      319871     12.53%     74.99% |      319150     12.50%     87.49% |      319398     12.51%    100.00% (Unspecified)
system.caches.L2Cache_Controller.L1_GETX::total      2553030                       (Unspecified)
system.caches.L2Cache_Controller.L1_UPGRADE |           0      0.00%      0.00% |          39     16.96%     16.96% |           0      0.00%     16.96% |           0      0.00%     16.96% |           0      0.00%     16.96% |           0      0.00%     16.96% |         191     83.04%    100.00% |           0      0.00%    100.00% (Unspecified)
system.caches.L2Cache_Controller.L1_UPGRADE::total          230                       (Unspecified)
system.caches.L2Cache_Controller.L1_PUTX |      617676     12.51%     12.51% |      618012     12.52%     25.03% |      615893     12.47%     37.50% |      616597     12.49%     49.99% |      616562     12.49%     62.48% |      617970     12.52%     75.00% |      616992     12.50%     87.49% |      617481     12.51%    100.00% (Unspecified)
system.caches.L2Cache_Controller.L1_PUTX::total      4937183                       (Unspecified)
system.caches.L2Cache_Controller.L1_PUTX_old |           2    100.00%    100.00% |           0      0.00%    100.00% |           0      0.00%    100.00% |           0      0.00%    100.00% |           0      0.00%    100.00% |           0      0.00%    100.00% |           0      0.00%    100.00% |           0      0.00%    100.00% (Unspecified)
system.caches.L2Cache_Controller.L1_PUTX_old::total            2                       (Unspecified)
system.caches.L2Cache_Controller.L2_Replacement |      322697     12.52%     12.52% |      322261     12.50%     25.02% |      321347     12.46%     37.48% |      322190     12.50%     49.98% |      321806     12.48%     62.46% |      323027     12.53%     74.99% |      322162     12.50%     87.48% |      322735     12.52%    100.00% (Unspecified)
system.caches.L2Cache_Controller.L2_Replacement::total      2578225                       (Unspecified)
system.caches.L2Cache_Controller.L2_Replacement_clean |      297003     12.51%     12.51% |      297350     12.52%     25.03% |      296557     12.49%     37.52% |      296474     12.49%     50.01% |      296914     12.51%     62.52% |      296602     12.49%     75.01% |      296710     12.50%     87.51% |      296594     12.49%    100.00% (Unspecified)
system.caches.L2Cache_Controller.L2_Replacement_clean::total      2374204                       (Unspecified)
system.caches.L2Cache_Controller.Mem_Data |      619698     12.51%     12.51% |      619608     12.51%     25.02% |      617902     12.48%     37.50% |      618662     12.49%     49.99% |      618720     12.49%     62.49% |      619629     12.51%     75.00% |      618868     12.50%     87.49% |      619329     12.51%    100.00% (Unspecified)
system.caches.L2Cache_Controller.Mem_Data::total      4952416                       (Unspecified)
system.caches.L2Cache_Controller.Mem_Ack |      619700     12.51%     12.51% |      619611     12.51%     25.02% |      617904     12.48%     37.50% |      618664     12.49%     49.99% |      618720     12.49%     62.49% |      619629     12.51%     75.00% |      618872     12.50%     87.49% |      619329     12.51%    100.00% (Unspecified)
system.caches.L2Cache_Controller.Mem_Ack::total      4952429                       (Unspecified)
system.caches.L2Cache_Controller.WB_Data |        1332     12.88%     12.88% |        1276     12.34%     25.22% |        1229     11.88%     37.10% |        1248     12.07%     49.17% |        1270     12.28%     61.45% |        1276     12.34%     73.79% |        1451     14.03%     87.82% |        1260     12.18%    100.00% (Unspecified)
system.caches.L2Cache_Controller.WB_Data::total        10342                       (Unspecified)
system.caches.L2Cache_Controller.WB_Data_clean |         123     20.92%     20.92% |          83     14.12%     35.03% |          86     14.63%     49.66% |          66     11.22%     60.88% |          58      9.86%     70.75% |          45      7.65%     78.40% |          36      6.12%     84.52% |          91     15.48%    100.00% (Unspecified)
system.caches.L2Cache_Controller.WB_Data_clean::total          588                       (Unspecified)
system.caches.L2Cache_Controller.Ack     |        5248     15.19%     15.19% |        4719     13.66%     28.85% |        4286     12.41%     41.26% |        3528     10.21%     51.47% |        4402     12.74%     64.21% |        4294     12.43%     76.64% |        3906     11.31%     87.95% |        4164     12.05%    100.00% (Unspecified)
system.caches.L2Cache_Controller.Ack::total        34547                       (Unspecified)
system.caches.L2Cache_Controller.Ack_all |        1849     13.54%     13.54% |        1851     13.55%     27.09% |        1698     12.43%     39.52% |        1587     11.62%     51.14% |        1716     12.56%     63.70% |        1668     12.21%     75.91% |        1589     11.63%     87.55% |        1701     12.45%    100.00% (Unspecified)
system.caches.L2Cache_Controller.Ack_all::total        13659                       (Unspecified)
system.caches.L2Cache_Controller.Unblock |         208     23.11%     23.11% |         126     14.00%     37.11% |          86      9.56%     46.67% |          66      7.33%     54.00% |          58      6.44%     60.44% |          45      5.00%     65.44% |         220     24.44%     89.89% |          91     10.11%    100.00% (Unspecified)
system.caches.L2Cache_Controller.Unblock::total          900                       (Unspecified)
system.caches.L2Cache_Controller.Exclusive_Unblock |      620085     12.51%     12.51% |      620347     12.52%     25.03% |      618140     12.47%     37.50% |      618883     12.49%     49.99% |      618861     12.49%     62.48% |      620242     12.52%     74.99% |      619442     12.50%     87.49% |      619744     12.51%    100.00% (Unspecified)
system.caches.L2Cache_Controller.Exclusive_Unblock::total      4955744                       (Unspecified)
system.caches.L2Cache_Controller.NP.L1_GET_INSTR |         663     13.26%     13.26% |         721     14.42%     27.67% |         608     12.16%     39.83% |         516     10.32%     50.15% |         656     13.12%     63.27% |         632     12.64%     75.90% |         569     11.38%     87.28% |         636     12.72%    100.00% (Unspecified)
system.caches.L2Cache_Controller.NP.L1_GET_INSTR::total         5001                       (Unspecified)
system.caches.L2Cache_Controller.NP.L1_GETS |      299938     12.51%     12.51% |      299932     12.51%     25.02% |      299227     12.48%     37.51% |      299545     12.50%     50.00% |      299506     12.49%     62.49% |      299759     12.50%     75.00% |      299584     12.50%     87.50% |      299748     12.50%    100.00% (Unspecified)
system.caches.L2Cache_Controller.NP.L1_GETS::total      2397239                       (Unspecified)
system.caches.L2Cache_Controller.NP.L1_GETX |      319099     12.51%     12.51% |      318958     12.51%     25.02% |      318069     12.47%     37.49% |      318603     12.49%     49.99% |      318558     12.49%     62.48% |      319238     12.52%     75.00% |      318719     12.50%     87.49% |      318945     12.51%    100.00% (Unspecified)
system.caches.L2Cache_Controller.NP.L1_GETX::total      2550189                       (Unspecified)
system.caches.L2Cache_Controller.NP.L1_PUTX_old |           1    100.00%    100.00% |           0      0.00%    100.00% |           0      0.00%    100.00% |           0      0.00%    100.00% |           0      0.00%    100.00% |           0      0.00%    100.00% |           0      0.00%    100.00% |           0      0.00%    100.00% (Unspecified)
system.caches.L2Cache_Controller.NP.L1_PUTX_old::total            1                       (Unspecified)
system.caches.L2Cache_Controller.SS.L1_GET_INSTR |        3277     12.34%     12.34% |        3801     14.31%     26.66% |        2912     10.97%     37.62% |        2173      8.18%     45.80% |        3141     11.83%     57.63% |        4001     15.07%     72.70% |        3763     14.17%     86.87% |        3486     13.13%    100.00% (Unspecified)
system.caches.L2Cache_Controller.SS.L1_GET_INSTR::total        26554                       (Unspecified)
system.caches.L2Cache_Controller.SS.L1_GETS |        5032     23.15%     23.15% |        3095     14.24%     37.38% |        3471     15.97%     53.35% |        2281     10.49%     63.84% |        1966      9.04%     72.88% |        1535      7.06%     79.94% |        1392      6.40%     86.35% |        2968     13.65%    100.00% (Unspecified)
system.caches.L2Cache_Controller.SS.L1_GETS::total        21740                       (Unspecified)
system.caches.L2Cache_Controller.SS.L1_GETX |          55     61.80%     61.80% |           0      0.00%     61.80% |           0      0.00%     61.80% |           0      0.00%     61.80% |           0      0.00%     61.80% |           0      0.00%     61.80% |          34     38.20%    100.00% |           0      0.00%    100.00% (Unspecified)
system.caches.L2Cache_Controller.SS.L1_GETX::total           89                       (Unspecified)
system.caches.L2Cache_Controller.SS.L1_UPGRADE |           0      0.00%      0.00% |          39     21.67%     21.67% |           0      0.00%     21.67% |           0      0.00%     21.67% |           0      0.00%     21.67% |           0      0.00%     21.67% |         141     78.33%    100.00% |           0      0.00%    100.00% (Unspecified)
system.caches.L2Cache_Controller.SS.L1_UPGRADE::total          180                       (Unspecified)
system.caches.L2Cache_Controller.SS.L2_Replacement |          35     57.38%     57.38% |          13     21.31%     78.69% |           0      0.00%     78.69% |           0      0.00%     78.69% |           0      0.00%     78.69% |           0      0.00%     78.69% |          13     21.31%    100.00% |           0      0.00%    100.00% (Unspecified)
system.caches.L2Cache_Controller.SS.L2_Replacement::total           61                       (Unspecified)
system.caches.L2Cache_Controller.SS.L2_Replacement_clean |         864     14.45%     14.45% |         858     14.35%     28.80% |         761     12.73%     41.52% |         627     10.48%     52.01% |         747     12.49%     64.50% |         721     12.06%     76.56% |         626     10.47%     87.02% |         776     12.98%    100.00% (Unspecified)
system.caches.L2Cache_Controller.SS.L2_Replacement_clean::total         5980                       (Unspecified)
system.caches.L2Cache_Controller.M.L1_GET_INSTR |           1      8.33%      8.33% |           2     16.67%     25.00% |           1      8.33%     33.33% |           0      0.00%     33.33% |           0      0.00%     33.33% |           2     16.67%     50.00% |           3     25.00%     75.00% |           3     25.00%    100.00% (Unspecified)
system.caches.L2Cache_Controller.M.L1_GET_INSTR::total           12                       (Unspecified)
system.caches.L2Cache_Controller.M.L1_GETS |         737     12.91%     12.91% |        1037     18.16%     31.07% |         798     13.98%     45.04% |         573     10.04%     55.08% |         678     11.87%     66.95% |         653     11.44%     78.39% |         588     10.30%     88.69% |         646     11.31%    100.00% (Unspecified)
system.caches.L2Cache_Controller.M.L1_GETS::total         5710                       (Unspecified)
system.caches.L2Cache_Controller.M.L1_GETX |         331     12.18%     12.18% |         445     16.37%     28.55% |         113      4.16%     32.71% |         207      7.62%     40.32% |         147      5.41%     45.73% |         630     23.18%     68.91% |         392     14.42%     83.33% |         453     16.67%    100.00% (Unspecified)
system.caches.L2Cache_Controller.M.L1_GETX::total         2718                       (Unspecified)
system.caches.L2Cache_Controller.M.L2_Replacement |      322658     12.52%     12.52% |      322244     12.50%     25.01% |      321347     12.46%     37.48% |      322185     12.50%     49.98% |      321804     12.48%     62.46% |      323025     12.53%     74.99% |      322147     12.50%     87.48% |      322733     12.52%    100.00% (Unspecified)
system.caches.L2Cache_Controller.M.L2_Replacement::total      2578143                       (Unspecified)
system.caches.L2Cache_Controller.M.L2_Replacement_clean |      293946     12.51%     12.51% |      294283     12.52%     25.02% |      293630     12.49%     37.52% |      293644     12.49%     50.01% |      293930     12.50%     62.51% |      293660     12.49%     75.01% |      293869     12.50%     87.51% |      293635     12.49%    100.00% (Unspecified)
system.caches.L2Cache_Controller.M.L2_Replacement_clean::total      2350597                       (Unspecified)
system.caches.L2Cache_Controller.MT.L1_GETS |         208     23.11%     23.11% |         126     14.00%     37.11% |          86      9.56%     46.67% |          66      7.33%     54.00% |          58      6.44%     60.44% |          45      5.00%     65.44% |         220     24.44%     89.89% |          91     10.11%    100.00% (Unspecified)
system.caches.L2Cache_Controller.MT.L1_GETS::total          900                       (Unspecified)
system.caches.L2Cache_Controller.MT.L1_GETX |           5     50.00%     50.00% |           0      0.00%     50.00% |           0      0.00%     50.00% |           0      0.00%     50.00% |           0      0.00%     50.00% |           0      0.00%     50.00% |           5     50.00%    100.00% |           0      0.00%    100.00% (Unspecified)
system.caches.L2Cache_Controller.MT.L1_GETX::total           10                       (Unspecified)
system.caches.L2Cache_Controller.MT.L1_PUTX |      617676     12.51%     12.51% |      618012     12.52%     25.03% |      615893     12.47%     37.50% |      616597     12.49%     49.99% |      616562     12.49%     62.48% |      617970     12.52%     75.00% |      616992     12.50%     87.49% |      617481     12.51%    100.00% (Unspecified)
system.caches.L2Cache_Controller.MT.L1_PUTX::total      4937183                       (Unspecified)
system.caches.L2Cache_Controller.MT.L2_Replacement |           4     19.05%     19.05% |           4     19.05%     38.10% |           0      0.00%     38.10% |           5     23.81%     61.90% |           2      9.52%     71.43% |           2      9.52%     80.95% |           2      9.52%     90.48% |           2      9.52%    100.00% (Unspecified)
system.caches.L2Cache_Controller.MT.L2_Replacement::total           21                       (Unspecified)
system.caches.L2Cache_Controller.MT.L2_Replacement_clean |        2193     12.44%     12.44% |        2209     12.53%     24.97% |        2166     12.29%     37.26% |        2203     12.50%     49.76% |        2237     12.69%     62.45% |        2221     12.60%     75.05% |        2215     12.57%     87.62% |        2183     12.38%    100.00% (Unspecified)
system.caches.L2Cache_Controller.MT.L2_Replacement_clean::total        17627                       (Unspecified)
system.caches.L2Cache_Controller.M_I.L1_GET_INSTR |           3     25.00%     25.00% |           0      0.00%     25.00% |           0      0.00%     25.00% |           5     41.67%     66.67% |           1      8.33%     75.00% |           0      0.00%     75.00% |           3     25.00%    100.00% |           0      0.00%    100.00% (Unspecified)
system.caches.L2Cache_Controller.M_I.L1_GET_INSTR::total           12                       (Unspecified)
system.caches.L2Cache_Controller.M_I.L1_GETS |           5     15.15%     15.15% |           4     12.12%     27.27% |           8     24.24%     51.52% |           2      6.06%     57.58% |           5     15.15%     72.73% |           0      0.00%     72.73% |           5     15.15%     87.88% |           4     12.12%    100.00% (Unspecified)
system.caches.L2Cache_Controller.M_I.L1_GETS::total           33                       (Unspecified)
system.caches.L2Cache_Controller.M_I.L1_GETX |          10     41.67%     41.67% |           6     25.00%     66.67% |           0      0.00%     66.67% |           1      4.17%     70.83% |           4     16.67%     87.50% |           3     12.50%    100.00% |           0      0.00%    100.00% |           0      0.00%    100.00% (Unspecified)
system.caches.L2Cache_Controller.M_I.L1_GETX::total           24                       (Unspecified)
system.caches.L2Cache_Controller.M_I.Mem_Ack |      619700     12.51%     12.51% |      619611     12.51%     25.02% |      617904     12.48%     37.50% |      618664     12.49%     49.99% |      618720     12.49%     62.49% |      619629     12.51%     75.00% |      618872     12.50%     87.49% |      619329     12.51%    100.00% (Unspecified)
system.caches.L2Cache_Controller.M_I.Mem_Ack::total      4952429                       (Unspecified)
system.caches.L2Cache_Controller.MT_I.WB_Data |           4     23.53%     23.53% |           2     11.76%     35.29% |           0      0.00%     35.29% |           4     23.53%     58.82% |           1      5.88%     64.71% |           2     11.76%     76.47% |           2     11.76%     88.24% |           2     11.76%    100.00% (Unspecified)
system.caches.L2Cache_Controller.MT_I.WB_Data::total           17                       (Unspecified)
system.caches.L2Cache_Controller.MT_I.Ack_all |           0      0.00%      0.00% |           2     50.00%     50.00% |           0      0.00%     50.00% |           1     25.00%     75.00% |           1     25.00%    100.00% |           0      0.00%    100.00% |           0      0.00%    100.00% |           0      0.00%    100.00% (Unspecified)
system.caches.L2Cache_Controller.MT_I.Ack_all::total            4                       (Unspecified)
system.caches.L2Cache_Controller.MCT_I.L1_PUTX_old |           1    100.00%    100.00% |           0      0.00%    100.00% |           0      0.00%    100.00% |           0      0.00%    100.00% |           0      0.00%    100.00% |           0      0.00%    100.00% |           0      0.00%    100.00% |           0      0.00%    100.00% (Unspecified)
system.caches.L2Cache_Controller.MCT_I.L1_PUTX_old::total            1                       (Unspecified)
system.caches.L2Cache_Controller.MCT_I.WB_Data |        1242     12.41%     12.41% |        1231     12.30%     24.70% |        1229     12.28%     36.98% |        1244     12.43%     49.40% |        1269     12.67%     62.08% |        1274     12.72%     74.80% |        1265     12.63%     87.44% |        1258     12.56%    100.00% (Unspecified)
system.caches.L2Cache_Controller.MCT_I.WB_Data::total        10012                       (Unspecified)
system.caches.L2Cache_Controller.MCT_I.WB_Data_clean |           1    100.00%    100.00% |           0      0.00%    100.00% |           0      0.00%    100.00% |           0      0.00%    100.00% |           0      0.00%    100.00% |           0      0.00%    100.00% |           0      0.00%    100.00% |           0      0.00%    100.00% (Unspecified)
system.caches.L2Cache_Controller.MCT_I.WB_Data_clean::total            1                       (Unspecified)
system.caches.L2Cache_Controller.MCT_I.Ack_all |         950     12.48%     12.48% |         978     12.84%     25.32% |         937     12.31%     37.63% |         959     12.60%     50.22% |         968     12.71%     62.94% |         947     12.44%     75.37% |         950     12.48%     87.85% |         925     12.15%    100.00% (Unspecified)
system.caches.L2Cache_Controller.MCT_I.Ack_all::total         7614                       (Unspecified)
system.caches.L2Cache_Controller.I_I.Ack |        5009     14.68%     14.68% |        4634     13.58%     28.25% |        4286     12.56%     40.81% |        3528     10.34%     51.15% |        4402     12.90%     64.04% |        4294     12.58%     76.62% |        3815     11.18%     87.80% |        4164     12.20%    100.00% (Unspecified)
system.caches.L2Cache_Controller.I_I.Ack::total        34132                       (Unspecified)
system.caches.L2Cache_Controller.I_I.Ack_all |         864     14.45%     14.45% |         858     14.35%     28.80% |         761     12.73%     41.52% |         627     10.48%     52.01% |         747     12.49%     64.50% |         721     12.06%     76.56% |         626     10.47%     87.02% |         776     12.98%    100.00% (Unspecified)
system.caches.L2Cache_Controller.I_I.Ack_all::total         5980                       (Unspecified)
system.caches.L2Cache_Controller.S_I.Ack |         239     57.59%     57.59% |          85     20.48%     78.07% |           0      0.00%     78.07% |           0      0.00%     78.07% |           0      0.00%     78.07% |           0      0.00%     78.07% |          91     21.93%    100.00% |           0      0.00%    100.00% (Unspecified)
system.caches.L2Cache_Controller.S_I.Ack::total          415                       (Unspecified)
system.caches.L2Cache_Controller.S_I.Ack_all |          35     57.38%     57.38% |          13     21.31%     78.69% |           0      0.00%     78.69% |           0      0.00%     78.69% |           0      0.00%     78.69% |           0      0.00%     78.69% |          13     21.31%    100.00% |           0      0.00%    100.00% (Unspecified)
system.caches.L2Cache_Controller.S_I.Ack_all::total           61                       (Unspecified)
system.caches.L2Cache_Controller.ISS.L1_GETS |          78     20.63%     20.63% |          61     16.14%     36.77% |          65     17.20%     53.97% |          43     11.38%     65.34% |          28      7.41%     72.75% |          38     10.05%     82.80% |          17      4.50%     87.30% |          48     12.70%    100.00% (Unspecified)
system.caches.L2Cache_Controller.ISS.L1_GETS::total          378                       (Unspecified)
system.caches.L2Cache_Controller.ISS.Mem_Data |      299860     12.51%     12.51% |      299869     12.51%     25.02% |      299161     12.48%     37.50% |      299501     12.50%     50.00% |      299478     12.49%     62.49% |      299721     12.50%     75.00% |      299565     12.50%     87.50% |      299700     12.50%    100.00% (Unspecified)
system.caches.L2Cache_Controller.ISS.Mem_Data::total      2396855                       (Unspecified)
system.caches.L2Cache_Controller.IS.L1_GET_INSTR |         721     12.89%     12.89% |         784     14.01%     26.90% |         603     10.78%     37.68% |         677     12.10%     49.78% |         841     15.03%     64.81% |         695     12.42%     77.23% |         671     11.99%     89.22% |         603     10.78%    100.00% (Unspecified)
system.caches.L2Cache_Controller.IS.L1_GET_INSTR::total         5595                       (Unspecified)
system.caches.L2Cache_Controller.IS.L1_GETS |         116     27.88%     27.88% |         107     25.72%     53.61% |          58     13.94%     67.55% |          23      5.53%     73.08% |          13      3.12%     76.20% |          58     13.94%     90.14% |          18      4.33%     94.47% |          23      5.53%    100.00% (Unspecified)
system.caches.L2Cache_Controller.IS.L1_GETS::total          416                       (Unspecified)
system.caches.L2Cache_Controller.IS.Mem_Data |         741     13.78%     13.78% |         782     14.54%     28.31% |         673     12.51%     40.83% |         559     10.39%     51.22% |         684     12.72%     63.93% |         670     12.46%     76.39% |         586     10.89%     87.28% |         684     12.72%    100.00% (Unspecified)
system.caches.L2Cache_Controller.IS.Mem_Data::total         5379                       (Unspecified)
system.caches.L2Cache_Controller.IM.Mem_Data |      319097     12.51%     12.51% |      318957     12.51%     25.02% |      318068     12.47%     37.49% |      318602     12.49%     49.99% |      318558     12.49%     62.48% |      319238     12.52%     75.00% |      318717     12.50%     87.49% |      318945     12.51%    100.00% (Unspecified)
system.caches.L2Cache_Controller.IM.Mem_Data::total      2550182                       (Unspecified)
system.caches.L2Cache_Controller.SS_MB.L1_GETS |           0      0.00%      0.00% |           0      0.00%      0.00% |           0      0.00%      0.00% |           0      0.00%      0.00% |           0      0.00%      0.00% |           0      0.00%      0.00% |         243    100.00%    100.00% |           0      0.00%    100.00% (Unspecified)
system.caches.L2Cache_Controller.SS_MB.L1_GETS::total          243                       (Unspecified)
system.caches.L2Cache_Controller.SS_MB.Exclusive_Unblock |          55     20.45%     20.45% |          39     14.50%     34.94% |           0      0.00%     34.94% |           0      0.00%     34.94% |           0      0.00%     34.94% |           0      0.00%     34.94% |         175     65.06%    100.00% |           0      0.00%    100.00% (Unspecified)
system.caches.L2Cache_Controller.SS_MB.Exclusive_Unblock::total          269                       (Unspecified)
system.caches.L2Cache_Controller.MT_MB.L1_GETS |           1     16.67%     16.67% |           1     16.67%     33.33% |           0      0.00%     33.33% |           1     16.67%     50.00% |           0      0.00%     50.00% |           1     16.67%     66.67% |           0      0.00%     66.67% |           2     33.33%    100.00% (Unspecified)
system.caches.L2Cache_Controller.MT_MB.L1_GETS::total            6                       (Unspecified)
system.caches.L2Cache_Controller.MT_MB.Exclusive_Unblock |      620030     12.51%     12.51% |      620308     12.52%     25.03% |      618140     12.47%     37.50% |      618883     12.49%     49.99% |      618861     12.49%     62.48% |      620242     12.52%     75.00% |      619267     12.50%     87.49% |      619744     12.51%    100.00% (Unspecified)
system.caches.L2Cache_Controller.MT_MB.Exclusive_Unblock::total      4955475                       (Unspecified)
system.caches.L2Cache_Controller.MT_IIB.L1_GETS |          16      8.84%      8.84% |          23     12.71%     21.55% |           1      0.55%     22.10% |           3      1.66%     23.76% |           7      3.87%     27.62% |           1      0.55%     28.18% |         125     69.06%     97.24% |           5      2.76%    100.00% (Unspecified)
system.caches.L2Cache_Controller.MT_IIB.L1_GETS::total          181                       (Unspecified)
system.caches.L2Cache_Controller.MT_IIB.WB_Data |          86     27.48%     27.48% |          43     13.74%     41.21% |           0      0.00%     41.21% |           0      0.00%     41.21% |           0      0.00%     41.21% |           0      0.00%     41.21% |         184     58.79%    100.00% |           0      0.00%    100.00% (Unspecified)
system.caches.L2Cache_Controller.MT_IIB.WB_Data::total          313                       (Unspecified)
system.caches.L2Cache_Controller.MT_IIB.WB_Data_clean |         122     20.78%     20.78% |          83     14.14%     34.92% |          86     14.65%     49.57% |          66     11.24%     60.82% |          58      9.88%     70.70% |          45      7.67%     78.36% |          36      6.13%     84.50% |          91     15.50%    100.00% (Unspecified)
system.caches.L2Cache_Controller.MT_IIB.WB_Data_clean::total          587                       (Unspecified)
system.caches.L2Cache_Controller.MT_SB.L1_GETS |           0      0.00%      0.00% |           2     40.00%     40.00% |           1     20.00%     60.00% |           0      0.00%     60.00% |           0      0.00%     60.00% |           0      0.00%     60.00% |           2     40.00%    100.00% |           0      0.00%    100.00% (Unspecified)
system.caches.L2Cache_Controller.MT_SB.L1_GETS::total            5                       (Unspecified)
system.caches.L2Cache_Controller.MT_SB.L1_UPGRADE |           0      0.00%      0.00% |           0      0.00%      0.00% |           0      0.00%      0.00% |           0      0.00%      0.00% |           0      0.00%      0.00% |           0      0.00%      0.00% |          50    100.00%    100.00% |           0      0.00%    100.00% (Unspecified)
system.caches.L2Cache_Controller.MT_SB.L1_UPGRADE::total           50                       (Unspecified)
system.caches.L2Cache_Controller.MT_SB.Unblock |         208     23.11%     23.11% |         126     14.00%     37.11% |          86      9.56%     46.67% |          66      7.33%     54.00% |          58      6.44%     60.44% |          45      5.00%     65.44% |         220     24.44%     89.89% |          91     10.11%    100.00% (Unspecified)
system.caches.L2Cache_Controller.MT_SB.Unblock::total          900                       (Unspecified)
system.caches.RequestType.LD.latency_hist_seqr::bucket_size          512                       (Unspecified)
system.caches.RequestType.LD.latency_hist_seqr::max_bucket         5119                       (Unspecified)
system.caches.RequestType.LD.latency_hist_seqr::samples      5406847                       (Unspecified)
system.caches.RequestType.LD.latency_hist_seqr::mean   273.181026                       (Unspecified)
system.caches.RequestType.LD.latency_hist_seqr::gmean    16.900558                       (Unspecified)
system.caches.RequestType.LD.latency_hist_seqr::stdev   369.107641                       (Unspecified)
system.caches.RequestType.LD.latency_hist_seqr |     4103775     75.90%     75.90% |     1189743     22.00%     97.90% |       72634      1.34%     99.25% |        4019      0.07%     99.32% |       20621      0.38%     99.70% |       15035      0.28%     99.98% |         965      0.02%    100.00% |          53      0.00%    100.00% |           2      0.00%    100.00% |           0      0.00%    100.00% (Unspecified)
system.caches.RequestType.LD.latency_hist_seqr::total      5406847                       (Unspecified)
system.caches.RequestType.LD.hit_latency_hist_seqr::bucket_size            1                       (Unspecified)
system.caches.RequestType.LD.hit_latency_hist_seqr::max_bucket            9                       (Unspecified)
system.caches.RequestType.LD.hit_latency_hist_seqr::samples      2980470                       (Unspecified)
system.caches.RequestType.LD.hit_latency_hist_seqr::mean     1.000099                       (Unspecified)
system.caches.RequestType.LD.hit_latency_hist_seqr::gmean     1.000068                       (Unspecified)
system.caches.RequestType.LD.hit_latency_hist_seqr::stdev     0.009931                       (Unspecified)
system.caches.RequestType.LD.hit_latency_hist_seqr |           0      0.00%      0.00% |     2980176     99.99%     99.99% |         294      0.01%    100.00% |           0      0.00%    100.00% |           0      0.00%    100.00% |           0      0.00%    100.00% |           0      0.00%    100.00% |           0      0.00%    100.00% |           0      0.00%    100.00% |           0      0.00%    100.00% (Unspecified)
system.caches.RequestType.LD.hit_latency_hist_seqr::total      2980470                       (Unspecified)
system.caches.RequestType.LD.miss_latency_hist_seqr::bucket_size          512                       (Unspecified)
system.caches.RequestType.LD.miss_latency_hist_seqr::max_bucket         5119                       (Unspecified)
system.caches.RequestType.LD.miss_latency_hist_seqr::samples      2426377                       (Unspecified)
system.caches.RequestType.LD.miss_latency_hist_seqr::mean   607.517812                       (Unspecified)
system.caches.RequestType.LD.miss_latency_hist_seqr::gmean   544.718247                       (Unspecified)
system.caches.RequestType.LD.miss_latency_hist_seqr::stdev   317.508871                       (Unspecified)
system.caches.RequestType.LD.miss_latency_hist_seqr |     1123305     46.30%     46.30% |     1189743     49.03%     95.33% |       72634      2.99%     98.32% |        4019      0.17%     98.49% |       20621      0.85%     99.34% |       15035      0.62%     99.96% |         965      0.04%    100.00% |          53      0.00%    100.00% |           2      0.00%    100.00% |           0      0.00%    100.00% (Unspecified)
system.caches.RequestType.LD.miss_latency_hist_seqr::total      2426377                       (Unspecified)
system.caches.RequestType.ST.latency_hist_seqr::bucket_size          512                       (Unspecified)
system.caches.RequestType.ST.latency_hist_seqr::max_bucket         5119                       (Unspecified)
system.caches.RequestType.ST.latency_hist_seqr::samples     20348190                       (Unspecified)
system.caches.RequestType.ST.latency_hist_seqr::mean    80.356034                       (Unspecified)
system.caches.RequestType.ST.latency_hist_seqr::gmean     2.221599                       (Unspecified)
system.caches.RequestType.ST.latency_hist_seqr::stdev   238.234275                       (Unspecified)
system.caches.RequestType.ST.latency_hist_seqr |    18955990     93.16%     93.16% |     1273282      6.26%     99.42% |       75472      0.37%     99.79% |        2770      0.01%     99.80% |       21627      0.11%     99.91% |       18188      0.09%    100.00% |         842      0.00%    100.00% |          19      0.00%    100.00% |           0      0.00%    100.00% |           0      0.00%    100.00% (Unspecified)
system.caches.RequestType.ST.latency_hist_seqr::total     20348190                       (Unspecified)
system.caches.RequestType.ST.hit_latency_hist_seqr::bucket_size          512                       (Unspecified)
system.caches.RequestType.ST.hit_latency_hist_seqr::max_bucket         5119                       (Unspecified)
system.caches.RequestType.ST.hit_latency_hist_seqr::samples     17799580                       (Unspecified)
system.caches.RequestType.ST.hit_latency_hist_seqr::mean     1.007287                       (Unspecified)
system.caches.RequestType.ST.hit_latency_hist_seqr::gmean     1.000125                       (Unspecified)
system.caches.RequestType.ST.hit_latency_hist_seqr::stdev     2.957120                       (Unspecified)
system.caches.RequestType.ST.hit_latency_hist_seqr |    17799477    100.00%    100.00% |          59      0.00%    100.00% |          27      0.00%    100.00% |          11      0.00%    100.00% |           2      0.00%    100.00% |           4      0.00%    100.00% |           0      0.00%    100.00% |           0      0.00%    100.00% |           0      0.00%    100.00% |           0      0.00%    100.00% (Unspecified)
system.caches.RequestType.ST.hit_latency_hist_seqr::total     17799580                       (Unspecified)
system.caches.RequestType.ST.miss_latency_hist_seqr::bucket_size          512                       (Unspecified)
system.caches.RequestType.ST.miss_latency_hist_seqr::max_bucket         5119                       (Unspecified)
system.caches.RequestType.ST.miss_latency_hist_seqr::samples      2548610                       (Unspecified)
system.caches.RequestType.ST.miss_latency_hist_seqr::mean   634.530412                       (Unspecified)
system.caches.RequestType.ST.miss_latency_hist_seqr::gmean   585.344269                       (Unspecified)
system.caches.RequestType.ST.miss_latency_hist_seqr::stdev   319.366693                       (Unspecified)
system.caches.RequestType.ST.miss_latency_hist_seqr |     1156513     45.38%     45.38% |     1273223     49.96%     95.34% |       75445      2.96%     98.30% |        2759      0.11%     98.40% |       21625      0.85%     99.25% |       18184      0.71%     99.97% |         842      0.03%    100.00% |          19      0.00%    100.00% |           0      0.00%    100.00% |           0      0.00%    100.00% (Unspecified)
system.caches.RequestType.ST.miss_latency_hist_seqr::total      2548610                       (Unspecified)
system.caches.RequestType.IFETCH.latency_hist_seqr::bucket_size          512                       (Unspecified)
system.caches.RequestType.IFETCH.latency_hist_seqr::max_bucket         5119                       (Unspecified)
system.caches.RequestType.IFETCH.latency_hist_seqr::samples      6601405                       (Unspecified)
system.caches.RequestType.IFETCH.latency_hist_seqr::mean     1.476231                       (Unspecified)
system.caches.RequestType.IFETCH.latency_hist_seqr::gmean     1.019431                       (Unspecified)
system.caches.RequestType.IFETCH.latency_hist_seqr::stdev    12.294567                       (Unspecified)
system.caches.RequestType.IFETCH.latency_hist_seqr |     6601027     99.99%     99.99% |         282      0.00%    100.00% |          67      0.00%    100.00% |          23      0.00%    100.00% |           2      0.00%    100.00% |           3      0.00%    100.00% |           1      0.00%    100.00% |           0      0.00%    100.00% |           0      0.00%    100.00% |           0      0.00%    100.00% (Unspecified)
system.caches.RequestType.IFETCH.latency_hist_seqr::total      6601405                       (Unspecified)
system.caches.RequestType.IFETCH.hit_latency_hist_seqr::bucket_size            1                       (Unspecified)
system.caches.RequestType.IFETCH.hit_latency_hist_seqr::max_bucket            9                       (Unspecified)
system.caches.RequestType.IFETCH.hit_latency_hist_seqr::samples      6564243                       (Unspecified)
system.caches.RequestType.IFETCH.hit_latency_hist_seqr::mean     1.000002                       (Unspecified)
system.caches.RequestType.IFETCH.hit_latency_hist_seqr::gmean     1.000002                       (Unspecified)
system.caches.RequestType.IFETCH.hit_latency_hist_seqr::stdev     0.001561                       (Unspecified)
system.caches.RequestType.IFETCH.hit_latency_hist_seqr |           0      0.00%      0.00% |     6564227    100.00%    100.00% |          16      0.00%    100.00% |           0      0.00%    100.00% |           0      0.00%    100.00% |           0      0.00%    100.00% |           0      0.00%    100.00% |           0      0.00%    100.00% |           0      0.00%    100.00% |           0      0.00%    100.00% (Unspecified)
system.caches.RequestType.IFETCH.hit_latency_hist_seqr::total      6564243                       (Unspecified)
system.caches.RequestType.IFETCH.miss_latency_hist_seqr::bucket_size          512                       (Unspecified)
system.caches.RequestType.IFETCH.miss_latency_hist_seqr::max_bucket         5119                       (Unspecified)
system.caches.RequestType.IFETCH.miss_latency_hist_seqr::samples        37162                       (Unspecified)
system.caches.RequestType.IFETCH.miss_latency_hist_seqr::mean    85.596577                       (Unspecified)
system.caches.RequestType.IFETCH.miss_latency_hist_seqr::gmean    30.515005                       (Unspecified)
system.caches.RequestType.IFETCH.miss_latency_hist_seqr::stdev   140.482872                       (Unspecified)
system.caches.RequestType.IFETCH.miss_latency_hist_seqr |       36784     98.98%     98.98% |         282      0.76%     99.74% |          67      0.18%     99.92% |          23      0.06%     99.98% |           2      0.01%     99.99% |           3      0.01%    100.00% |           1      0.00%    100.00% |           0      0.00%    100.00% |           0      0.00%    100.00% |           0      0.00%    100.00% (Unspecified)
system.caches.RequestType.IFETCH.miss_latency_hist_seqr::total        37162                       (Unspecified)
system.caches.RequestType.RMW_Read.latency_hist_seqr::bucket_size          512                       (Unspecified)
system.caches.RequestType.RMW_Read.latency_hist_seqr::max_bucket         5119                       (Unspecified)
system.caches.RequestType.RMW_Read.latency_hist_seqr::samples        12688                       (Unspecified)
system.caches.RequestType.RMW_Read.latency_hist_seqr::mean   137.627601                       (Unspecified)
system.caches.RequestType.RMW_Read.latency_hist_seqr::gmean     6.171279                       (Unspecified)
system.caches.RequestType.RMW_Read.latency_hist_seqr::stdev   313.956706                       (Unspecified)
system.caches.RequestType.RMW_Read.latency_hist_seqr |       11273     88.85%     88.85% |        1154      9.10%     97.94% |         168      1.32%     99.27% |          47      0.37%     99.64% |          24      0.19%     99.83% |          18      0.14%     99.97% |           3      0.02%     99.99% |           1      0.01%    100.00% |           0      0.00%    100.00% |           0      0.00%    100.00% (Unspecified)
system.caches.RequestType.RMW_Read.latency_hist_seqr::total        12688                       (Unspecified)
system.caches.RequestType.RMW_Read.hit_latency_hist_seqr::bucket_size          512                       (Unspecified)
system.caches.RequestType.RMW_Read.hit_latency_hist_seqr::max_bucket         5119                       (Unspecified)
system.caches.RequestType.RMW_Read.hit_latency_hist_seqr::samples         8879                       (Unspecified)
system.caches.RequestType.RMW_Read.hit_latency_hist_seqr::mean    20.392499                       (Unspecified)
system.caches.RequestType.RMW_Read.hit_latency_hist_seqr::gmean     1.516746                       (Unspecified)
system.caches.RequestType.RMW_Read.hit_latency_hist_seqr::stdev   122.420942                       (Unspecified)
system.caches.RequestType.RMW_Read.hit_latency_hist_seqr |        8726     98.28%     98.28% |         132      1.49%     99.76% |          16      0.18%     99.94% |           3      0.03%     99.98% |           1      0.01%     99.99% |           0      0.00%     99.99% |           1      0.01%    100.00% |           0      0.00%    100.00% |           0      0.00%    100.00% |           0      0.00%    100.00% (Unspecified)
system.caches.RequestType.RMW_Read.hit_latency_hist_seqr::total         8879                       (Unspecified)
system.caches.RequestType.RMW_Read.miss_latency_hist_seqr::bucket_size          512                       (Unspecified)
system.caches.RequestType.RMW_Read.miss_latency_hist_seqr::max_bucket         5119                       (Unspecified)
system.caches.RequestType.RMW_Read.miss_latency_hist_seqr::samples         3809                       (Unspecified)
system.caches.RequestType.RMW_Read.miss_latency_hist_seqr::mean   410.909425                       (Unspecified)
system.caches.RequestType.RMW_Read.miss_latency_hist_seqr::gmean   162.580015                       (Unspecified)
system.caches.RequestType.RMW_Read.miss_latency_hist_seqr::stdev   432.098402                       (Unspecified)
system.caches.RequestType.RMW_Read.miss_latency_hist_seqr |        2547     66.87%     66.87% |        1022     26.83%     93.70% |         152      3.99%     97.69% |          44      1.16%     98.84% |          23      0.60%     99.45% |          18      0.47%     99.92% |           2      0.05%     99.97% |           1      0.03%    100.00% |           0      0.00%    100.00% |           0      0.00%    100.00% (Unspecified)
system.caches.RequestType.RMW_Read.miss_latency_hist_seqr::total         3809                       (Unspecified)
system.caches.RequestType.Locked_RMW_Read.latency_hist_seqr::bucket_size          512                       (Unspecified)
system.caches.RequestType.Locked_RMW_Read.latency_hist_seqr::max_bucket         5119                       (Unspecified)
[...]
system.o3Cpu7.iew.squashCycles                   4551                       # Number of cycles IEW is squashing (Cycle)
system.o3Cpu7.iew.blockCycles                 2120916                       # Number of cycles IEW is blocking (Cycle)
system.o3Cpu7.iew.unblockCycles             112963678                       # Number of cycles IEW is unblocking (Cycle)
system.o3Cpu7.iew.dispatchedInsts            10998509                       # Number of instructions dispatched to IQ (Count)
system.o3Cpu7.iew.dispSquashedInsts              1198                       # Number of squashed instructions skipped by dispatch (Count)
system.o3Cpu7.iew.dispLoadInsts               2302492                       # Number of dispatched load instructions (Count)
system.o3Cpu7.iew.dispStoreInsts              2541794                       # Number of dispatched store instructions (Count)
system.o3Cpu7.iew.dispNonSpecInsts               1775                       # Number of dispatched non-speculative instructions (Count)
system.o3Cpu7.iew.iqFullEvents                   3164                       # Number of times the IQ has become full, causing a stall (Count)
system.o3Cpu7.iew.lsqFullEvents             112909913                       # Number of times the LSQ has become full, causing a stall (Count)
system.o3Cpu7.iew.memOrderViolationEvents          527                       # Number of memory order violations (Count)
system.o3Cpu7.iew.predictedTakenIncorrect         3342                       # Number of branches that were predicted taken incorrectly (Count)
system.o3Cpu7.iew.predictedNotTakenIncorrect          665                       # Number of branches that were predicted not taken incorrectly (Count)
system.o3Cpu7.iew.branchMispredicts              4007                       # Number of branch mispredicts detected at execute (Count)
system.o3Cpu7.iew.instsToCommit              10961544                       # Cumulative count of insts sent to commit (Count)
system.o3Cpu7.iew.writebackCount             10961326                       # Cumulative count of insts written-back (Count)
system.o3Cpu7.iew.producerInst                5551190                       # Number of instructions producing a value (Count)
system.o3Cpu7.iew.consumerInst               10401691                       # Number of instructions consuming a value (Count)
system.o3Cpu7.iew.wbRate                     0.052611                       # Insts written-back per cycle ((Count/Cycle))
system.o3Cpu7.iew.wbFanout                   0.533681                       # Average fanout of values written-back ((Count/Count))
system.o3Cpu7.interrupts.clk_domain.clock         3200                       # Clock period in ticks (Tick)
system.o3Cpu7.lsq0.forwLoads                     4562                       # Number of loads that had data forwarded from stores (Count)
system.o3Cpu7.lsq0.squashedLoads                23148                       # Number of loads squashed (Count)
system.o3Cpu7.lsq0.ignoredResponses                17                       # Number of memory responses ignored because the instruction is squashed (Count)
system.o3Cpu7.lsq0.memOrderViolation              527                       # Number of memory ordering violations (Count)
system.o3Cpu7.lsq0.squashedStores                3077                       # Number of stores squashed (Count)
system.o3Cpu7.lsq0.rescheduledLoads                35                       # Number of loads that were rescheduled (Count)
system.o3Cpu7.lsq0.blockedByCache               51078                       # Number of times an access to memory failed due to the cache being blocked (Count)
system.o3Cpu7.lsq0.loadToUse::samples         2279335                       # Distribution of cycle latency between the first time a load is issued and its completion (Unspecified)
system.o3Cpu7.lsq0.loadToUse::mean         440.631389                       # Distribution of cycle latency between the first time a load is issued and its completion (Unspecified)
system.o3Cpu7.lsq0.loadToUse::stdev        400.184102                       # Distribution of cycle latency between the first time a load is issued and its completion (Unspecified)
system.o3Cpu7.lsq0.loadToUse::0-9              579941     25.44%     25.44% # Distribution of cycle latency between the first time a load is issued and its completion (Unspecified)
system.o3Cpu7.lsq0.loadToUse::10-19             10450      0.46%     25.90% # Distribution of cycle latency between the first time a load is issued and its completion (Unspecified)
system.o3Cpu7.lsq0.loadToUse::20-29             10336      0.45%     26.36% # Distribution of cycle latency between the first time a load is issued and its completion (Unspecified)
system.o3Cpu7.lsq0.loadToUse::30-39             12577      0.55%     26.91% # Distribution of cycle latency between the first time a load is issued and its completion (Unspecified)
system.o3Cpu7.lsq0.loadToUse::40-49              8703      0.38%     27.29% # Distribution of cycle latency between the first time a load is issued and its completion (Unspecified)
system.o3Cpu7.lsq0.loadToUse::50-59              8657      0.38%     27.67% # Distribution of cycle latency between the first time a load is issued and its completion (Unspecified)
system.o3Cpu7.lsq0.loadToUse::60-69              6938      0.30%     27.97% # Distribution of cycle latency between the first time a load is issued and its completion (Unspecified)
system.o3Cpu7.lsq0.loadToUse::70-79              6992      0.31%     28.28% # Distribution of cycle latency between the first time a load is issued and its completion (Unspecified)
system.o3Cpu7.lsq0.loadToUse::80-89              7466      0.33%     28.61% # Distribution of cycle latency between the first time a load is issued and its completion (Unspecified)
system.o3Cpu7.lsq0.loadToUse::90-99              6093      0.27%     28.87% # Distribution of cycle latency between the first time a load is issued and its completion (Unspecified)
system.o3Cpu7.lsq0.loadToUse::100-109            6496      0.28%     29.16% # Distribution of cycle latency between the first time a load is issued and its completion (Unspecified)
system.o3Cpu7.lsq0.loadToUse::110-119            5944      0.26%     29.42% # Distribution of cycle latency between the first time a load is issued and its completion (Unspecified)
system.o3Cpu7.lsq0.loadToUse::120-129            5725      0.25%     29.67% # Distribution of cycle latency between the first time a load is issued and its completion (Unspecified)
system.o3Cpu7.lsq0.loadToUse::130-139            6046      0.27%     29.94% # Distribution of cycle latency between the first time a load is issued and its completion (Unspecified)
system.o3Cpu7.lsq0.loadToUse::140-149            5167      0.23%     30.16% # Distribution of cycle latency between the first time a load is issued and its completion (Unspecified)
system.o3Cpu7.lsq0.loadToUse::150-159            5103      0.22%     30.39% # Distribution of cycle latency between the first time a load is issued and its completion (Unspecified)
system.o3Cpu7.lsq0.loadToUse::160-169            4618      0.20%     30.59% # Distribution of cycle latency between the first time a load is issued and its completion (Unspecified)
system.o3Cpu7.lsq0.loadToUse::170-179            4540      0.20%     30.79% # Distribution of cycle latency between the first time a load is issued and its completion (Unspecified)
system.o3Cpu7.lsq0.loadToUse::180-189            4339      0.19%     30.98% # Distribution of cycle latency between the first time a load is issued and its completion (Unspecified)
system.o3Cpu7.lsq0.loadToUse::190-199            4238      0.19%     31.17% # Distribution of cycle latency between the first time a load is issued and its completion (Unspecified)
system.o3Cpu7.lsq0.loadToUse::200-209            3773      0.17%     31.33% # Distribution of cycle latency between the first time a load is issued and its completion (Unspecified)
system.o3Cpu7.lsq0.loadToUse::210-219            3714      0.16%     31.49% # Distribution of cycle latency between the first time a load is issued and its completion (Unspecified)
system.o3Cpu7.lsq0.loadToUse::220-229            3130      0.14%     31.63% # Distribution of cycle latency between the first time a load is issued and its completion (Unspecified)
system.o3Cpu7.lsq0.loadToUse::230-239            2482      0.11%     31.74% # Distribution of cycle latency between the first time a load is issued and its completion (Unspecified)
system.o3Cpu7.lsq0.loadToUse::240-249            2393      0.10%     31.85% # Distribution of cycle latency between the first time a load is issued and its completion (Unspecified)
system.o3Cpu7.lsq0.loadToUse::250-259            2938      0.13%     31.97% # Distribution of cycle latency between the first time a load is issued and its completion (Unspecified)
system.o3Cpu7.lsq0.loadToUse::260-269            2732      0.12%     32.09% # Distribution of cycle latency between the first time a load is issued and its completion (Unspecified)
system.o3Cpu7.lsq0.loadToUse::270-279            3033      0.13%     32.23% # Distribution of cycle latency between the first time a load is issued and its completion (Unspecified)
system.o3Cpu7.lsq0.loadToUse::280-289            3034      0.13%     32.36% # Distribution of cycle latency between the first time a load is issued and its completion (Unspecified)
system.o3Cpu7.lsq0.loadToUse::290-299            3116      0.14%     32.50% # Distribution of cycle latency between the first time a load is issued and its completion (Unspecified)
system.o3Cpu7.lsq0.loadToUse::overflows       1538621     67.50%    100.00% # Distribution of cycle latency between the first time a load is issued and its completion (Unspecified)
system.o3Cpu7.lsq0.loadToUse::min_value             2                       # Distribution of cycle latency between the first time a load is issued and its completion (Unspecified)
system.o3Cpu7.lsq0.loadToUse::max_value          4178                       # Distribution of cycle latency between the first time a load is issued and its completion (Unspecified)
system.o3Cpu7.lsq0.loadToUse::total           2279335                       # Distribution of cycle latency between the first time a load is issued and its completion (Unspecified)
system.o3Cpu7.mmu.dtb.rdAccesses              2290543                       # TLB accesses on read requests (Count)
system.o3Cpu7.mmu.dtb.wrAccesses              2541537                       # TLB accesses on write requests (Count)
system.o3Cpu7.mmu.dtb.rdMisses                   2359                       # TLB misses on read requests (Count)
system.o3Cpu7.mmu.dtb.wrMisses                   1556                       # TLB misses on write requests (Count)
system.o3Cpu7.mmu.dtb.walker.power_state.pwrStateResidencyTicks::UNDEFINED  42683508400                       # Cumulative time (in ticks) in various power states (Tick)
system.o3Cpu7.mmu.itb.rdAccesses                    0                       # TLB accesses on read requests (Count)
system.o3Cpu7.mmu.itb.wrAccesses               786591                       # TLB accesses on write requests (Count)
system.o3Cpu7.mmu.itb.rdMisses                      0                       # TLB misses on read requests (Count)
system.o3Cpu7.mmu.itb.wrMisses                     91                       # TLB misses on write requests (Count)
system.o3Cpu7.mmu.itb.walker.power_state.pwrStateResidencyTicks::UNDEFINED  42683508400                       # Cumulative time (in ticks) in various power states (Tick)
system.o3Cpu7.power_state.pwrStateResidencyTicks::OFF  42683508400                       # Cumulative time (in ticks) in various power states (Tick)
system.o3Cpu7.rename.squashCycles                4551                       # Number of cycles rename is squashing (Cycle)
system.o3Cpu7.rename.idleCycles                772736                       # Number of cycles rename is idle (Cycle)
system.o3Cpu7.rename.blockCycles            115211402                       # Number of cycles rename is blocking (Cycle)
system.o3Cpu7.rename.serializeStallCycles       388959                       # count of cycles rename stalled for serializing inst (Cycle)
system.o3Cpu7.rename.runCycles                1015554                       # Number of cycles rename is running (Cycle)
system.o3Cpu7.rename.unblockCycles           90803606                       # Number of cycles rename is unblocking (Cycle)
system.o3Cpu7.rename.renamedInsts            11016102                       # Number of instructions processed by rename (Count)
system.o3Cpu7.rename.ROBFullEvents              23753                       # Number of times rename has blocked due to ROB full (Count)
system.o3Cpu7.rename.IQFullEvents              422866                       # Number of times rename has blocked due to IQ full (Count)
system.o3Cpu7.rename.LQFullEvents               64812                       # Number of times rename has blocked due to LQ full (Count)
system.o3Cpu7.rename.SQFullEvents            90464635                       # Number of times rename has blocked due to SQ full (Count)
system.o3Cpu7.rename.renamedOperands         13841059                       # Number of destination operands rename has renamed (Count)
system.o3Cpu7.rename.lookups                 35305122                       # Number of register rename lookups that rename has made (Count)
system.o3Cpu7.rename.intLookups               7963788                       # Number of integer rename lookups (Count)
system.o3Cpu7.rename.fpLookups                9600336                       # Number of floating rename lookups (Count)
system.o3Cpu7.rename.committedMaps           13694473                       # Number of HB maps that are committed (Count)
system.o3Cpu7.rename.undoneMaps                146556                       # Number of HB maps that are undone due to squashing (Count)
system.o3Cpu7.rename.serializing                 1876                       # count of serializing insts renamed (Count)
system.o3Cpu7.rename.tempSerializing             2015                       # count of temporary serializing insts renamed (Count)
system.o3Cpu7.rename.skidInsts                4982207                       # count of insts added to the skid buffer (Count)
system.o3Cpu7.rob.reads                     218651841                       # The number of ROB reads (Count)
system.o3Cpu7.rob.writes                     22006922                       # The number of ROB writes (Count)
system.o3Cpu7.thread_0.numInsts               6610567                       # Number of Instructions committed (Count)
system.o3Cpu7.thread_0.numOps                10923568                       # Number of Ops committed (Count)
system.o3Cpu7.thread_0.numMemRefs                   0                       # Number of Memory References (Count)
system.pc.bad_addr.power_state.pwrStateResidencyTicks::UNDEFINED  42683508400                       # Cumulative time (in ticks) in various power states (Tick)
system.pc.com_1.power_state.pwrStateResidencyTicks::UNDEFINED  42683508400                       # Cumulative time (in ticks) in various power states (Tick)
system.pc.default_bus.power_state.pwrStateResidencyTicks::UNDEFINED  42683508400                       # Cumulative time (in ticks) in various power states (Tick)
system.pc.empty_isa.power_state.pwrStateResidencyTicks::UNDEFINED  42683508400                       # Cumulative time (in ticks) in various power states (Tick)
system.pc.fake_com_2.power_state.pwrStateResidencyTicks::UNDEFINED  42683508400                       # Cumulative time (in ticks) in various power states (Tick)
system.pc.fake_com_3.power_state.pwrStateResidencyTicks::UNDEFINED  42683508400                       # Cumulative time (in ticks) in various power states (Tick)
system.pc.fake_com_4.power_state.pwrStateResidencyTicks::UNDEFINED  42683508400                       # Cumulative time (in ticks) in various power states (Tick)
system.pc.fake_floppy.power_state.pwrStateResidencyTicks::UNDEFINED  42683508400                       # Cumulative time (in ticks) in various power states (Tick)
system.pc.pci_host.power_state.pwrStateResidencyTicks::UNDEFINED  42683508400                       # Cumulative time (in ticks) in various power states (Tick)
system.pc.south_bridge.cmos.power_state.pwrStateResidencyTicks::UNDEFINED  42683508400                       # Cumulative time (in ticks) in various power states (Tick)
system.pc.south_bridge.dma1.power_state.pwrStateResidencyTicks::UNDEFINED  42683508400                       # Cumulative time (in ticks) in various power states (Tick)
system.pc.south_bridge.ide.disks0.IdeDisk.dmaReadFullPages            0                       # Number of full page size DMA reads (not PRD). (Count)
system.pc.south_bridge.ide.disks0.IdeDisk.dmaReadBytes            0                       # Number of bytes transfered via DMA reads (not PRD). (Byte)
system.pc.south_bridge.ide.disks0.IdeDisk.dmaReadTxs            0                       # Number of DMA read transactions (not PRD). (Count)
system.pc.south_bridge.ide.disks0.IdeDisk.dmaWriteFullPages            0                       # Number of full page size DMA writes. (Count)
system.pc.south_bridge.ide.disks0.IdeDisk.dmaWriteBytes            0                       # Number of bytes transfered via DMA writes. (Byte)
system.pc.south_bridge.ide.disks0.IdeDisk.dmaWriteTxs            0                       # Number of DMA write transactions. (Count)
system.pc.south_bridge.ide.disks1.IdeDisk.dmaReadFullPages            0                       # Number of full page size DMA reads (not PRD). (Count)
system.pc.south_bridge.ide.disks1.IdeDisk.dmaReadBytes            0                       # Number of bytes transfered via DMA reads (not PRD). (Byte)
system.pc.south_bridge.ide.disks1.IdeDisk.dmaReadTxs            0                       # Number of DMA read transactions (not PRD). (Count)
system.pc.south_bridge.ide.disks1.IdeDisk.dmaWriteFullPages            0                       # Number of full page size DMA writes. (Count)
system.pc.south_bridge.ide.disks1.IdeDisk.dmaWriteBytes            0                       # Number of bytes transfered via DMA writes. (Byte)
system.pc.south_bridge.ide.disks1.IdeDisk.dmaWriteTxs            0                       # Number of DMA write transactions. (Count)
system.pc.south_bridge.ide.power_state.pwrStateResidencyTicks::UNDEFINED  42683508400                       # Cumulative time (in ticks) in various power states (Tick)
system.pc.south_bridge.io_apic.power_state.pwrStateResidencyTicks::UNDEFINED  42683508400                       # Cumulative time (in ticks) in various power states (Tick)
system.pc.south_bridge.keyboard.power_state.pwrStateResidencyTicks::UNDEFINED  42683508400                       # Cumulative time (in ticks) in various power states (Tick)
system.pc.south_bridge.pic1.power_state.pwrStateResidencyTicks::UNDEFINED  42683508400                       # Cumulative time (in ticks) in various power states (Tick)
system.pc.south_bridge.pic2.power_state.pwrStateResidencyTicks::UNDEFINED  42683508400                       # Cumulative time (in ticks) in various power states (Tick)
system.pc.south_bridge.pit.power_state.pwrStateResidencyTicks::UNDEFINED  42683508400                       # Cumulative time (in ticks) in various power states (Tick)
system.pc.south_bridge.speaker.power_state.pwrStateResidencyTicks::UNDEFINED  42683508400                       # Cumulative time (in ticks) in various power states (Tick)
system.workload.inst.arm                            0                       # number of arm instructions executed (Count)
system.workload.inst.quiesce                        0                       # number of quiesce instructions executed (Count)

---------- End Simulation Statistics   ----------
