
---------- Begin Simulation Statistics ----------
simSeconds                                   0.024483                       # Number of seconds simulated (Second)
simTicks                                  24483264600                       # Number of ticks simulated (Tick)
finalTick                                104654187365200                       # Number of ticks from beginning of simulation (restored from checkpoints and never reset) (Tick)
simFreq                                  1000000000000                       # The number of ticks per simulated second ((Tick/Second))
hostSeconds                                  13263.96                       # Real time elapsed on the host (Second)
hostTickRate                                  1845849                       # The number of ticks simulated per host second (ticks/s) ((Tick/Second))
hostMemory                                   20024284                       # Number of bytes of host memory used (Byte)
simInsts                                    861460264                       # Number of instructions simulated (Count)
simOps                                     1804144464                       # Number of ops (including micro ops) simulated (Count)
hostInstRate                                    64947                       # Simulator instruction rate (inst/s) ((Count/Second))
hostOpRate                                     136019                       # Simulator op (including micro ops) rate (op/s) ((Count/Second))
system.caches.delayHistogram::bucket_size          256                       # delay histogram for all message (Unspecified)
system.caches.delayHistogram::max_bucket         2559                       # delay histogram for all message (Unspecified)
system.caches.delayHistogram::samples         9248628                       # delay histogram for all message (Unspecified)
system.caches.delayHistogram::mean           1.138256                       # delay histogram for all message (Unspecified)
system.caches.delayHistogram::stdev          2.955558                       # delay histogram for all message (Unspecified)
system.caches.delayHistogram             |     9248625    100.00%    100.00% |           0      0.00%    100.00% |           1      0.00%    100.00% |           0      0.00%    100.00% |           1      0.00%    100.00% |           0      0.00%    100.00% |           1      0.00%    100.00% |           0      0.00%    100.00% |           0      0.00%    100.00% |           0      0.00%    100.00% # delay histogram for all message (Unspecified)
system.caches.delayHistogram::total           9248628                       # delay histogram for all message (Unspecified)
system.caches.m_outstandReqHistSeqr::bucket_size            2                       (Unspecified)
system.caches.m_outstandReqHistSeqr::max_bucket           19                       (Unspecified)
system.caches.m_outstandReqHistSeqr::samples    405069435                       (Unspecified)
system.caches.m_outstandReqHistSeqr::mean     1.959343                       (Unspecified)
system.caches.m_outstandReqHistSeqr::gmean     1.728208                       (Unspecified)
system.caches.m_outstandReqHistSeqr::stdev     1.030905                       (Unspecified)
system.caches.m_outstandReqHistSeqr      |   160537143     39.63%     39.63% |   212335524     52.42%     92.05% |    28666063      7.08%     99.13% |     3485329      0.86%     99.99% |        7645      0.00%     99.99% |        3749      0.00%     99.99% |        5675      0.00%     99.99% |        8855      0.00%    100.00% |       19452      0.00%    100.00% |           0      0.00%    100.00% (Unspecified)
system.caches.m_outstandReqHistSeqr::total    405069435                       (Unspecified)
system.caches.m_latencyHistSeqr::bucket_size          512                       (Unspecified)
system.caches.m_latencyHistSeqr::max_bucket         5119                       (Unspecified)
system.caches.m_latencyHistSeqr::samples    405146016                       (Unspecified)
system.caches.m_latencyHistSeqr::mean        2.613831                       (Unspecified)
system.caches.m_latencyHistSeqr::gmean       1.020431                       (Unspecified)
system.caches.m_latencyHistSeqr::stdev      33.919014                       (Unspecified)
system.caches.m_latencyHistSeqr          |   404635995     99.87%     99.87% |      472176      0.12%     99.99% |       16089      0.00%     99.99% |        8710      0.00%    100.00% |        8166      0.00%    100.00% |        4674      0.00%    100.00% |         206      0.00%    100.00% |           0      0.00%    100.00% |           0      0.00%    100.00% |           0      0.00%    100.00% (Unspecified)
system.caches.m_latencyHistSeqr::total      405146016                       (Unspecified)
system.caches.m_hitLatencyHistSeqr::bucket_size          256                       (Unspecified)
system.caches.m_hitLatencyHistSeqr::max_bucket         2559                       (Unspecified)
system.caches.m_hitLatencyHistSeqr::samples    403793977                       (Unspecified)
system.caches.m_hitLatencyHistSeqr::mean     1.000861                       (Unspecified)
system.caches.m_hitLatencyHistSeqr::gmean     1.000481                       (Unspecified)
system.caches.m_hitLatencyHistSeqr::stdev     0.334656                       (Unspecified)
system.caches.m_hitLatencyHistSeqr       |   403793860    100.00%    100.00% |          65      0.00%    100.00% |          36      0.00%    100.00% |          13      0.00%    100.00% |           0      0.00%    100.00% |           1      0.00%    100.00% |           0      0.00%    100.00% |           1      0.00%    100.00% |           1      0.00%    100.00% |           0      0.00%    100.00% (Unspecified)
system.caches.m_hitLatencyHistSeqr::total    403793977                       (Unspecified)
system.caches.m_missLatencyHistSeqr::bucket_size          512                       (Unspecified)
system.caches.m_missLatencyHistSeqr::max_bucket         5119                       (Unspecified)
system.caches.m_missLatencyHistSeqr::samples      1352039                       (Unspecified)
system.caches.m_missLatencyHistSeqr::mean   484.336207                       (Unspecified)
system.caches.m_missLatencyHistSeqr::gmean   371.265612                       (Unspecified)
system.caches.m_missLatencyHistSeqr::stdev   334.494791                       (Unspecified)
system.caches.m_missLatencyHistSeqr      |      842070     62.28%     62.28% |      472127     34.92%     97.20% |       16088      1.19%     98.39% |        8709      0.64%     99.04% |        8165      0.60%     99.64% |        4674      0.35%     99.98% |         206      0.02%    100.00% |           0      0.00%    100.00% |           0      0.00%    100.00% |           0      0.00%    100.00% (Unspecified)
system.caches.m_missLatencyHistSeqr::total      1352039                       (Unspecified)
system.caches.delayVCHist.vnet_0::bucket_size          256                       # delay histogram for vnet_0 (Unspecified)
system.caches.delayVCHist.vnet_0::max_bucket         2559                       # delay histogram for vnet_0 (Unspecified)
system.caches.delayVCHist.vnet_0::samples      3917057                       # delay histogram for vnet_0 (Unspecified)
system.caches.delayVCHist.vnet_0::mean       2.650945                       # delay histogram for vnet_0 (Unspecified)
system.caches.delayVCHist.vnet_0::stdev      4.044399                       # delay histogram for vnet_0 (Unspecified)
system.caches.delayVCHist.vnet_0         |     3917054    100.00%    100.00% |           0      0.00%    100.00% |           1      0.00%    100.00% |           0      0.00%    100.00% |           1      0.00%    100.00% |           0      0.00%    100.00% |           1      0.00%    100.00% |           0      0.00%    100.00% |           0      0.00%    100.00% |           0      0.00%    100.00% # delay histogram for vnet_0 (Unspecified)
system.caches.delayVCHist.vnet_0::total       3917057                       # delay histogram for vnet_0 (Unspecified)
system.caches.delayVCHist.vnet_1::bucket_size            8                       # delay histogram for vnet_1 (Unspecified)
system.caches.delayVCHist.vnet_1::max_bucket           79                       # delay histogram for vnet_1 (Unspecified)
system.caches.delayVCHist.vnet_1::samples      5254779                       # delay histogram for vnet_1 (Unspecified)
system.caches.delayVCHist.vnet_1::mean       0.027284                       # delay histogram for vnet_1 (Unspecified)
system.caches.delayVCHist.vnet_1::stdev      0.471746                       # delay histogram for vnet_1 (Unspecified)
system.caches.delayVCHist.vnet_1         |     5250786     99.92%     99.92% |        3011      0.06%     99.98% |         716      0.01%     99.99% |         202      0.00%    100.00% |          49      0.00%    100.00% |          12      0.00%    100.00% |           2      0.00%    100.00% |           1      0.00%    100.00% |           0      0.00%    100.00% |           0      0.00%    100.00% # delay histogram for vnet_1 (Unspecified)
system.caches.delayVCHist.vnet_1::total       5254779                       # delay histogram for vnet_1 (Unspecified)
system.caches.delayVCHist.vnet_2::bucket_size            1                       # delay histogram for vnet_2 (Unspecified)
system.caches.delayVCHist.vnet_2::max_bucket            9                       # delay histogram for vnet_2 (Unspecified)
system.caches.delayVCHist.vnet_2::samples        76792                       # delay histogram for vnet_2 (Unspecified)
system.caches.delayVCHist.vnet_2::mean       0.000417                       # delay histogram for vnet_2 (Unspecified)
system.caches.delayVCHist.vnet_2::stdev      0.032274                       # delay histogram for vnet_2 (Unspecified)
system.caches.delayVCHist.vnet_2         |       76778     99.98%     99.98% |           0      0.00%     99.98% |          12      0.02%    100.00% |           0      0.00%    100.00% |           2      0.00%    100.00% |           0      0.00%    100.00% |           0      0.00%    100.00% |           0      0.00%    100.00% |           0      0.00%    100.00% |           0      0.00%    100.00% # delay histogram for vnet_2 (Unspecified)
system.caches.delayVCHist.vnet_2::total         76792                       # delay histogram for vnet_2 (Unspecified)
system.caches.L1Cache_Controller.Load    |    34597082     12.23%     12.23% |    36652862     12.95%     25.18% |    35133017     12.42%     37.60% |    35669624     12.61%     50.20% |    34811969     12.30%     62.51% |    35481160     12.54%     75.05% |    35184265     12.43%     87.48% |    35425475     12.52%    100.00% (Unspecified)
system.caches.L1Cache_Controller.Load::total    282955454                       (Unspecified)
system.caches.L1Cache_Controller.Ifetch  |     9379160     12.22%     12.22% |     9903892     12.91%     25.13% |     9525532     12.41%     37.55% |     9660057     12.59%     50.14% |     9430215     12.29%     62.43% |     9611718     12.53%     74.95% |     9618444     12.54%     87.49% |     9598554     12.51%    100.00% (Unspecified)
system.caches.L1Cache_Controller.Ifetch::total     76727572                       (Unspecified)
system.caches.L1Cache_Controller.Store   |     5446002     11.98%     11.98% |     5480869     12.06%     24.03% |     5901054     12.98%     37.01% |     5749054     12.65%     49.66% |     5532174     12.17%     61.83% |     5653887     12.44%     74.26% |     5990389     13.18%     87.44% |     5709565     12.56%    100.00% (Unspecified)
system.caches.L1Cache_Controller.Store::total     45462994                       (Unspecified)
system.caches.L1Cache_Controller.Inv     |       13276     17.79%     17.79% |       13181     17.66%     35.45% |        5148      6.90%     42.34% |        6085      8.15%     50.49% |       14025     18.79%     69.28% |        8961     12.01%     81.29% |        5878      7.87%     89.16% |        8088     10.84%    100.00% (Unspecified)
system.caches.L1Cache_Controller.Inv::total        74642                       (Unspecified)
system.caches.L1Cache_Controller.L1_Replacement |      147348     11.03%     11.03% |      122718      9.19%     20.22% |      199355     14.93%     35.15% |      171477     12.84%     47.99% |      157692     11.81%     59.80% |      162289     12.15%     71.95% |      204508     15.31%     87.27% |      170062     12.73%    100.00% (Unspecified)
system.caches.L1Cache_Controller.L1_Replacement::total      1335449                       (Unspecified)
system.caches.L1Cache_Controller.Fwd_GETX |          48      4.34%      4.34% |          32      2.90%      7.24% |         197     17.83%     25.07% |         137     12.40%     37.47% |          72      6.52%     43.98% |         173     15.66%     59.64% |         255     23.08%     82.71% |         191     17.29%    100.00% (Unspecified)
system.caches.L1Cache_Controller.Fwd_GETX::total         1105                       (Unspecified)
system.caches.L1Cache_Controller.Fwd_GETS |         365     34.93%     34.93% |         192     18.37%     53.30% |          94      9.00%     62.30% |          53      5.07%     67.37% |         119     11.39%     78.76% |          61      5.84%     84.59% |          99      9.47%     94.07% |          62      5.93%    100.00% (Unspecified)
system.caches.L1Cache_Controller.Fwd_GETS::total         1045                       (Unspecified)
system.caches.L1Cache_Controller.Data    |          27     48.21%     48.21% |           0      0.00%     48.21% |           9     16.07%     64.29% |           4      7.14%     71.43% |           7     12.50%     83.93% |           2      3.57%     87.50% |           4      7.14%     94.64% |           3      5.36%    100.00% (Unspecified)
system.caches.L1Cache_Controller.Data::total           56                       (Unspecified)
system.caches.L1Cache_Controller.Data_Exclusive |        2514     11.72%     11.72% |        1690      7.88%     19.59% |        3455     16.10%     35.69% |        2617     12.20%     47.89% |        2541     11.84%     59.73% |        2507     11.68%     71.42% |        3548     16.54%     87.95% |        2585     12.05%    100.00% (Unspecified)
system.caches.L1Cache_Controller.Data_Exclusive::total        21457                       (Unspecified)
system.caches.L1Cache_Controller.DataS_fromL1 |         163     15.60%     15.60% |         252     24.11%     39.71% |         100      9.57%     49.28% |          71      6.79%     56.08% |         182     17.42%     73.49% |         113     10.81%     84.31% |          95      9.09%     93.40% |          69      6.60%    100.00% (Unspecified)
system.caches.L1Cache_Controller.DataS_fromL1::total         1045                       (Unspecified)
system.caches.L1Cache_Controller.Data_all_Acks |      147225     11.08%     11.08% |      122694      9.23%     20.31% |      197782     14.88%     35.19% |      170717     12.85%     48.04% |      156809     11.80%     59.84% |      161576     12.16%     72.00% |      202782     15.26%     87.26% |      169369     12.74%    100.00% (Unspecified)
system.caches.L1Cache_Controller.Data_all_Acks::total      1328954                       (Unspecified)
system.caches.L1Cache_Controller.Ack     |         853     62.26%     62.26% |          44      3.21%     65.47% |          84      6.13%     71.61% |          74      5.40%     77.01% |          73      5.33%     82.34% |          65      4.74%     87.08% |         106      7.74%     94.82% |          71      5.18%    100.00% (Unspecified)
system.caches.L1Cache_Controller.Ack::total         1370                       (Unspecified)
system.caches.L1Cache_Controller.Ack_all |         195     33.45%     33.45% |          23      3.95%     37.39% |          67     11.49%     48.89% |          62     10.63%     59.52% |          53      9.09%     68.61% |          52      8.92%     77.53% |          66     11.32%     88.85% |          65     11.15%    100.00% (Unspecified)
system.caches.L1Cache_Controller.Ack_all::total          583                       (Unspecified)
system.caches.L1Cache_Controller.WB_Ack  |      127115     10.13%     10.13% |      110125      8.78%     18.90% |      194106     15.47%     34.37% |      165584     13.19%     47.57% |      143767     11.46%     59.02% |      153490     12.23%     71.25% |      198619     15.83%     87.08% |      162145     12.92%    100.00% (Unspecified)
system.caches.L1Cache_Controller.WB_Ack::total      1254951                       (Unspecified)
system.caches.L1Cache_Controller.NP.Load |        2825     10.54%     10.54% |        1863      6.95%     17.48% |        4441     16.56%     34.04% |        3375     12.59%     46.63% |        3251     12.12%     58.75% |        3207     11.96%     70.71% |        4534     16.91%     87.62% |        3319     12.38%    100.00% (Unspecified)
system.caches.L1Cache_Controller.NP.Load::total        26815                       (Unspecified)
system.caches.L1Cache_Controller.NP.Ifetch |       11077     45.45%     45.45% |        1877      7.70%     53.15% |        2022      8.30%     61.45% |        1933      7.93%     69.38% |        2034      8.35%     77.72% |        1959      8.04%     85.76% |        1536      6.30%     92.06% |        1935      7.94%    100.00% (Unspecified)
system.caches.L1Cache_Controller.NP.Ifetch::total        24373                       (Unspecified)
system.caches.L1Cache_Controller.NP.Store |      133803     10.41%     10.41% |      119156      9.27%     19.67% |      193077     15.02%     34.69% |      166349     12.94%     47.62% |      152600     11.87%     59.49% |      157304     12.23%     71.72% |      198578     15.44%     87.17% |      165002     12.83%    100.00% (Unspecified)
system.caches.L1Cache_Controller.NP.Store::total      1285869                       (Unspecified)
system.caches.L1Cache_Controller.NP.Inv  |        1625     24.96%     24.96% |         620      9.52%     34.48% |         795     12.21%     46.69% |         715     10.98%     57.67% |         760     11.67%     69.34% |         714     10.97%     80.31% |         561      8.62%     88.93% |         721     11.07%    100.00% (Unspecified)
system.caches.L1Cache_Controller.NP.Inv::total         6511                       (Unspecified)
system.caches.L1Cache_Controller.I.Load  |         647     15.82%     15.82% |         624     15.26%     31.08% |         459     11.22%     42.30% |         453     11.08%     53.37% |         504     12.32%     65.70% |         496     12.13%     77.82% |         429     10.49%     88.31% |         478     11.69%    100.00% (Unspecified)
system.caches.L1Cache_Controller.I.Load::total         4090                       (Unspecified)
system.caches.L1Cache_Controller.I.Ifetch |        1296     14.09%     14.09% |         933     10.14%     24.23% |        1244     13.52%     37.75% |        1177     12.79%     50.54% |        1017     11.05%     61.60% |        1101     11.97%     73.57% |        1253     13.62%     87.18% |        1179     12.82%    100.00% (Unspecified)
system.caches.L1Cache_Controller.I.Ifetch::total         9200                       (Unspecified)
system.caches.L1Cache_Controller.I.Store |         281     24.06%     24.06% |         184     15.75%     39.81% |         103      8.82%     48.63% |         122     10.45%     59.08% |         134     11.47%     70.55% |         131     11.22%     81.76% |         100      8.56%     90.33% |         113      9.67%    100.00% (Unspecified)
system.caches.L1Cache_Controller.I.Store::total         1168                       (Unspecified)
system.caches.L1Cache_Controller.I.L1_Replacement |        9117     17.55%     17.55% |       10507     20.22%     37.77% |        2384      4.59%     42.36% |        3395      6.53%     48.89% |       11322     21.79%     70.68% |        6324     12.17%     82.86% |        3478      6.69%     89.55% |        5430     10.45%    100.00% (Unspecified)
system.caches.L1Cache_Controller.I.L1_Replacement::total        51957                       (Unspecified)
system.caches.L1Cache_Controller.S.Load  |    28366037     12.11%     12.11% |    29983935     12.80%     24.92% |    29197218     12.47%     37.39% |    29631084     12.65%     50.04% |    28883167     12.33%     62.37% |    29487640     12.59%     74.97% |    29183749     12.46%     87.43% |    29441463     12.57%    100.00% (Unspecified)
system.caches.L1Cache_Controller.S.Load::total    234174293                       (Unspecified)
system.caches.L1Cache_Controller.S.Ifetch |     9366787     12.21%     12.21% |     9901082     12.91%     25.12% |     9522266     12.42%     37.54% |     9656947     12.59%     50.13% |     9427164     12.29%     62.42% |     9608658     12.53%     74.95% |     9615655     12.54%     87.49% |     9595440     12.51%    100.00% (Unspecified)
system.caches.L1Cache_Controller.S.Ifetch::total     76693999                       (Unspecified)
system.caches.L1Cache_Controller.S.Store |         168     31.82%     31.82% |          23      4.36%     36.17% |          59     11.17%     47.35% |          58     10.98%     58.33% |          46      8.71%     67.05% |          50      9.47%     76.52% |          62     11.74%     88.26% |          62     11.74%    100.00% (Unspecified)
system.caches.L1Cache_Controller.S.Store::total          528                       (Unspecified)
system.caches.L1Cache_Controller.S.Inv   |        2271     14.62%     14.62% |        1762     11.35%     25.97% |        1972     12.70%     38.67% |        1930     12.43%     51.09% |        1824     11.75%     62.84% |        1880     12.11%     74.95% |        1941     12.50%     87.44% |        1950     12.56%    100.00% (Unspecified)
system.caches.L1Cache_Controller.S.Inv::total        15530                       (Unspecified)
system.caches.L1Cache_Controller.S.L1_Replacement |       11116     38.95%     38.95% |        2086      7.31%     46.26% |        2865     10.04%     56.29% |        2498      8.75%     65.05% |        2603      9.12%     74.17% |        2475      8.67%     82.84% |        2411      8.45%     91.29% |        2487      8.71%    100.00% (Unspecified)
system.caches.L1Cache_Controller.S.L1_Replacement::total        28541                       (Unspecified)
system.caches.L1Cache_Controller.E.Load  |      332626     38.62%     38.62% |      428254     49.72%     88.33% |        9366      1.09%     89.42% |        7957      0.92%     90.34% |       58644      6.81%     97.15% |        7269      0.84%     98.00% |        9358      1.09%     99.08% |        7907      0.92%    100.00% (Unspecified)
system.caches.L1Cache_Controller.E.Load::total       861381                       (Unspecified)
system.caches.L1Cache_Controller.E.Store |         952     10.24%     10.24% |         659      7.09%     17.33% |        1604     17.26%     34.59% |        1109     11.93%     46.52% |        1141     12.28%     58.80% |        1111     11.95%     70.76% |        1602     17.24%     87.99% |        1116     12.01%    100.00% (Unspecified)
system.caches.L1Cache_Controller.E.Store::total         9294                       (Unspecified)
system.caches.L1Cache_Controller.E.Inv   |         284     17.35%     17.35% |         295     18.02%     35.37% |         162      9.90%     45.27% |         158      9.65%     54.92% |         220     13.44%     68.36% |         192     11.73%     80.09% |         147      8.98%     89.07% |         179     10.93%    100.00% (Unspecified)
system.caches.L1Cache_Controller.E.Inv::total         1637                       (Unspecified)
system.caches.L1Cache_Controller.E.L1_Replacement |        1097     10.43%     10.43% |         676      6.42%     16.85% |        1750     16.63%     33.48% |        1365     12.97%     46.46% |        1213     11.53%     57.98% |        1298     12.34%     70.32% |        1803     17.14%     87.45% |        1320     12.55%    100.00% (Unspecified)
system.caches.L1Cache_Controller.E.L1_Replacement::total        10522                       (Unspecified)
system.caches.L1Cache_Controller.E.Fwd_GETX |           0      0.00%      0.00% |           1      4.00%      4.00% |           4     16.00%     20.00% |           2      8.00%     28.00% |           8     32.00%     60.00% |           5     20.00%     80.00% |           2      8.00%     88.00% |           3     12.00%    100.00% (Unspecified)
system.caches.L1Cache_Controller.E.Fwd_GETX::total           25                       (Unspecified)
system.caches.L1Cache_Controller.E.Fwd_GETS |         153     31.68%     31.68% |         164     33.95%     65.63% |          33      6.83%     72.46% |          12      2.48%     74.95% |          62     12.84%     87.78% |          21      4.35%     92.13% |          26      5.38%     97.52% |          12      2.48%    100.00% (Unspecified)
system.caches.L1Cache_Controller.E.Fwd_GETS::total          483                       (Unspecified)
system.caches.L1Cache_Controller.M.Load  |     5894947     12.31%     12.31% |     6238186     13.03%     25.34% |     5921533     12.37%     37.70% |     6026755     12.58%     50.29% |     5866403     12.25%     62.54% |     5982548     12.49%     75.03% |     5986195     12.50%     87.53% |     5972308     12.47%    100.00% (Unspecified)
system.caches.L1Cache_Controller.M.Load::total     47888875                       (Unspecified)
system.caches.L1Cache_Controller.M.Store |     5310798     12.02%     12.02% |     5360847     12.14%     24.16% |     5706211     12.92%     37.08% |     5581416     12.64%     49.72% |     5378253     12.18%     61.90% |     5495291     12.44%     74.34% |     5790047     13.11%     87.45% |     5543272     12.55%    100.00% (Unspecified)
system.caches.L1Cache_Controller.M.Store::total     44166135                       (Unspecified)
system.caches.L1Cache_Controller.M.Inv   |        9096     17.85%     17.85% |       10504     20.62%     38.47% |        2216      4.35%     42.82% |        3280      6.44%     49.26% |       11219     22.02%     71.27% |        6173     12.12%     83.39% |        3227      6.33%     89.72% |        5236     10.28%    100.00% (Unspecified)
system.caches.L1Cache_Controller.M.Inv::total        50951                       (Unspecified)
system.caches.L1Cache_Controller.M.L1_Replacement |      126018     10.13%     10.13% |      109449      8.80%     18.92% |      192356     15.46%     34.38% |      164219     13.20%     47.58% |      142554     11.46%     59.03% |      152192     12.23%     71.26% |      196816     15.82%     87.08% |      160825     12.92%    100.00% (Unspecified)
system.caches.L1Cache_Controller.M.L1_Replacement::total      1244429                       (Unspecified)
system.caches.L1Cache_Controller.M.Fwd_GETX |          48      4.44%      4.44% |          31      2.87%      7.31% |         193     17.87%     25.19% |         135     12.50%     37.69% |          64      5.93%     43.61% |         168     15.56%     59.17% |         253     23.43%     82.59% |         188     17.41%    100.00% (Unspecified)
system.caches.L1Cache_Controller.M.Fwd_GETX::total         1080                       (Unspecified)
system.caches.L1Cache_Controller.M.Fwd_GETS |         212     37.72%     37.72% |          28      4.98%     42.70% |          61     10.85%     53.56% |          41      7.30%     60.85% |          57     10.14%     71.00% |          40      7.12%     78.11% |          73     12.99%     91.10% |          50      8.90%    100.00% (Unspecified)
system.caches.L1Cache_Controller.M.Fwd_GETS::total          562                       (Unspecified)
system.caches.L1Cache_Controller.IS.Inv  |           0      0.00%      0.00% |           0      0.00%      0.00% |           2     16.67%     16.67% |           2     16.67%     33.33% |           2     16.67%     50.00% |           2     16.67%     66.67% |           2     16.67%     83.33% |           2     16.67%    100.00% (Unspecified)
system.caches.L1Cache_Controller.IS.Inv::total           12                       (Unspecified)
system.caches.L1Cache_Controller.IS.Data_Exclusive |        2514     11.72%     11.72% |        1690      7.88%     19.59% |        3455     16.10%     35.69% |        2617     12.20%     47.89% |        2541     11.84%     59.73% |        2507     11.68%     71.42% |        3548     16.54%     87.95% |        2585     12.05%    100.00% (Unspecified)
system.caches.L1Cache_Controller.IS.Data_Exclusive::total        21457                       (Unspecified)
system.caches.L1Cache_Controller.IS.DataS_fromL1 |         163     15.60%     15.60% |         252     24.11%     39.71% |         100      9.57%     49.28% |          71      6.79%     56.08% |         182     17.42%     73.49% |         113     10.81%     84.31% |          95      9.09%     93.40% |          69      6.60%    100.00% (Unspecified)
system.caches.L1Cache_Controller.IS.DataS_fromL1::total         1045                       (Unspecified)
system.caches.L1Cache_Controller.IS.Data_all_Acks |       13168     31.38%     31.38% |        3355      7.99%     39.37% |        4609     10.98%     50.36% |        4248     10.12%     60.48% |        4081      9.73%     70.21% |        4141      9.87%     80.07% |        4107      9.79%     89.86% |        4255     10.14%    100.00% (Unspecified)
system.caches.L1Cache_Controller.IS.Data_all_Acks::total        41964                       (Unspecified)
system.caches.L1Cache_Controller.IM.Data |          27     48.21%     48.21% |           0      0.00%     48.21% |           9     16.07%     64.29% |           4      7.14%     71.43% |           7     12.50%     83.93% |           2      3.57%     87.50% |           4      7.14%     94.64% |           3      5.36%    100.00% (Unspecified)
system.caches.L1Cache_Controller.IM.Data::total           56                       (Unspecified)
system.caches.L1Cache_Controller.IM.Data_all_Acks |      134057     10.42%     10.42% |      119339      9.27%     19.69% |      193171     15.01%     34.70% |      166467     12.93%     47.63% |      152726     11.87%     59.50% |      157433     12.23%     71.73% |      198673     15.44%     87.17% |      165112     12.83%    100.00% (Unspecified)
system.caches.L1Cache_Controller.IM.Data_all_Acks::total      1286978                       (Unspecified)
system.caches.L1Cache_Controller.SM.Inv  |           0      0.00%      0.00% |           0      0.00%      0.00% |           1    100.00%    100.00% |           0      0.00%    100.00% |           0      0.00%    100.00% |           0      0.00%    100.00% |           0      0.00%    100.00% |           0      0.00%    100.00% (Unspecified)
system.caches.L1Cache_Controller.SM.Inv::total            1                       (Unspecified)
system.caches.L1Cache_Controller.SM.Ack  |         853     62.26%     62.26% |          44      3.21%     65.47% |          84      6.13%     71.61% |          74      5.40%     77.01% |          73      5.33%     82.34% |          65      4.74%     87.08% |         106      7.74%     94.82% |          71      5.18%    100.00% (Unspecified)
system.caches.L1Cache_Controller.SM.Ack::total         1370                       (Unspecified)
system.caches.L1Cache_Controller.SM.Ack_all |         195     33.45%     33.45% |          23      3.95%     37.39% |          67     11.49%     48.89% |          62     10.63%     59.52% |          53      9.09%     68.61% |          52      8.92%     77.53% |          66     11.32%     88.85% |          65     11.15%    100.00% (Unspecified)
system.caches.L1Cache_Controller.SM.Ack_all::total          583                       (Unspecified)
system.caches.L1Cache_Controller.IS_I.Data_all_Acks |           0      0.00%      0.00% |           0      0.00%      0.00% |           2     16.67%     16.67% |           2     16.67%     33.33% |           2     16.67%     50.00% |           2     16.67%     66.67% |           2     16.67%     83.33% |           2     16.67%    100.00% (Unspecified)
system.caches.L1Cache_Controller.IS_I.Data_all_Acks::total           12                       (Unspecified)
system.caches.L1Cache_Controller.M_I.WB_Ack |      127115     10.13%     10.13% |      110125      8.78%     18.90% |      194106     15.47%     34.37% |      165584     13.19%     47.57% |      143767     11.46%     59.02% |      153490     12.23%     71.25% |      198619     15.83%     87.08% |      162145     12.92%    100.00% (Unspecified)
system.caches.L1Cache_Controller.M_I.WB_Ack::total      1254951                       (Unspecified)
system.caches.Directory_Controller.Fetch |        3744      0.29%      0.29% |     1282309     99.71%    100.00% (Unspecified)
system.caches.Directory_Controller.Fetch::total      1286053                       (Unspecified)
system.caches.Directory_Controller.Data  |         191      0.01%      0.01% |     1274287     99.99%    100.00% (Unspecified)
system.caches.Directory_Controller.Data::total      1274478                       (Unspecified)
system.caches.Directory_Controller.Memory_Data |        3744      0.29%      0.29% |     1282305     99.71%    100.00% (Unspecified)
system.caches.Directory_Controller.Memory_Data::total      1286049                       (Unspecified)
system.caches.Directory_Controller.Memory_Ack |         191      0.01%      0.01% |     1274287     99.99%    100.00% (Unspecified)
system.caches.Directory_Controller.Memory_Ack::total      1274478                       (Unspecified)
system.caches.Directory_Controller.CleanReplacement |        3823     33.03%     33.03% |        7752     66.97%    100.00% (Unspecified)
system.caches.Directory_Controller.CleanReplacement::total        11575                       (Unspecified)
system.caches.Directory_Controller.I.Fetch |        3744      0.29%      0.29% |     1282309     99.71%    100.00% (Unspecified)
system.caches.Directory_Controller.I.Fetch::total      1286053                       (Unspecified)
system.caches.Directory_Controller.M.Data |         191      0.01%      0.01% |     1274287     99.99%    100.00% (Unspecified)
system.caches.Directory_Controller.M.Data::total      1274478                       (Unspecified)
system.caches.Directory_Controller.M.CleanReplacement |        3823     33.03%     33.03% |        7752     66.97%    100.00% (Unspecified)
system.caches.Directory_Controller.M.CleanReplacement::total        11575                       (Unspecified)
system.caches.Directory_Controller.IM.Memory_Data |        3744      0.29%      0.29% |     1282305     99.71%    100.00% (Unspecified)
system.caches.Directory_Controller.IM.Memory_Data::total      1286049                       (Unspecified)
system.caches.Directory_Controller.MI.Memory_Ack |         191      0.01%      0.01% |     1274287     99.99%    100.00% (Unspecified)
system.caches.Directory_Controller.MI.Memory_Ack::total      1274478                       (Unspecified)
system.caches.L2Cache_Controller.L1_GET_INSTR |        4079     12.14%     12.14% |        4279     12.73%     24.87% |        3371     10.03%     34.91% |        3548     10.56%     45.46% |        3883     11.56%     57.02% |        4857     14.45%     71.47% |        5260     15.65%     87.13% |        4325     12.87%    100.00% (Unspecified)
system.caches.L2Cache_Controller.L1_GET_INSTR::total        33602                       (Unspecified)
system.caches.L2Cache_Controller.L1_GETS |        4913     15.71%     15.71% |        4073     13.03%     28.74% |        3846     12.30%     41.04% |        3704     11.85%     52.88% |        3597     11.50%     64.38% |        3283     10.50%     74.88% |        3668     11.73%     86.61% |        4186     13.39%    100.00% (Unspecified)
system.caches.L2Cache_Controller.L1_GETS::total        31270                       (Unspecified)
system.caches.L2Cache_Controller.L1_GETX |      161082     12.52%     12.52% |      160946     12.50%     25.02% |      160554     12.47%     37.49% |      160747     12.49%     49.98% |      160823     12.50%     62.48% |      161203     12.52%     75.00% |      160956     12.51%     87.51% |      160767     12.49%    100.00% (Unspecified)
system.caches.L2Cache_Controller.L1_GETX::total      1287078                       (Unspecified)
system.caches.L2Cache_Controller.L1_UPGRADE |         109     20.30%     20.30% |          54     10.06%     30.35% |          50      9.31%     39.66% |          28      5.21%     44.88% |          56     10.43%     55.31% |          49      9.12%     64.43% |         122     22.72%     87.15% |          69     12.85%    100.00% (Unspecified)
system.caches.L2Cache_Controller.L1_UPGRADE::total          537                       (Unspecified)
system.caches.L2Cache_Controller.L1_PUTX |      157096     12.52%     12.52% |      156946     12.51%     25.02% |      156701     12.49%     37.51% |      156749     12.49%     50.00% |      156858     12.50%     62.50% |      156881     12.50%     75.00% |      156785     12.49%     87.49% |      156935     12.51%    100.00% (Unspecified)
system.caches.L2Cache_Controller.L1_PUTX::total      1254951                       (Unspecified)
system.caches.L2Cache_Controller.L2_Replacement |      153232     12.51%     12.51% |      153060     12.50%     25.00% |      153115     12.50%     37.50% |      153044     12.49%     50.00% |      153058     12.50%     62.49% |      153126     12.50%     75.00% |      153126     12.50%     87.50% |      153167     12.50%    100.00% (Unspecified)
system.caches.L2Cache_Controller.L2_Replacement::total      1224928                       (Unspecified)
system.caches.L2Cache_Controller.L2_Replacement_clean |        7602     12.44%     12.44% |        7703     12.60%     25.04% |        7482     12.24%     37.28% |        7667     12.54%     49.82% |        7596     12.43%     62.25% |        7727     12.64%     74.89% |        7645     12.51%     87.40% |        7703     12.60%    100.00% (Unspecified)
system.caches.L2Cache_Controller.L2_Replacement_clean::total        61125                       (Unspecified)
system.caches.L2Cache_Controller.Mem_Data |      160832     12.51%     12.51% |      160763     12.50%     25.01% |      160597     12.49%     37.49% |      160710     12.50%     49.99% |      160653     12.49%     62.48% |      160853     12.51%     74.99% |      160771     12.50%     87.49% |      160870     12.51%    100.00% (Unspecified)
system.caches.L2Cache_Controller.Mem_Data::total      1286049                       (Unspecified)
system.caches.L2Cache_Controller.Mem_Ack |      160834     12.51%     12.51% |      160763     12.50%     25.01% |      160597     12.49%     37.49% |      160711     12.50%     49.99% |      160654     12.49%     62.48% |      160853     12.51%     74.99% |      160771     12.50%     87.49% |      160870     12.51%    100.00% (Unspecified)
system.caches.L2Cache_Controller.Mem_Ack::total      1286053                       (Unspecified)
system.caches.L2Cache_Controller.WB_Data |        6441     12.50%     12.50% |        6382     12.39%     24.89% |        6209     12.05%     36.95% |        6457     12.53%     49.48% |        6373     12.37%     61.85% |        6617     12.85%     74.70% |        6525     12.67%     87.36% |        6509     12.64%    100.00% (Unspecified)
system.caches.L2Cache_Controller.WB_Data::total        51513                       (Unspecified)
system.caches.L2Cache_Controller.WB_Data_clean |          80     16.56%     16.56% |          52     10.77%     27.33% |          68     14.08%     41.41% |          60     12.42%     53.83% |          54     11.18%     65.01% |          40      8.28%     73.29% |          59     12.22%     85.51% |          70     14.49%    100.00% (Unspecified)
system.caches.L2Cache_Controller.WB_Data_clean::total          483                       (Unspecified)
system.caches.L2Cache_Controller.Ack     |        2096     12.80%     12.80% |        2070     12.64%     25.45% |        1977     12.08%     37.52% |        1907     11.65%     49.17% |        2090     12.77%     61.94% |        2084     12.73%     74.67% |        2040     12.46%     87.13% |        2107     12.87%    100.00% (Unspecified)
system.caches.L2Cache_Controller.Ack::total        16371                       (Unspecified)
system.caches.L2Cache_Controller.Ack_all |         770     13.06%     13.06% |         790     13.40%     26.47% |         718     12.18%     38.65% |         679     11.52%     50.17% |         742     12.59%     62.76% |         712     12.08%     74.84% |         747     12.67%     87.51% |         736     12.49%    100.00% (Unspecified)
system.caches.L2Cache_Controller.Ack_all::total         5894                       (Unspecified)
system.caches.L2Cache_Controller.Unblock |         201     19.23%     19.23% |         102      9.76%     29.00% |         115     11.00%     40.00% |          92      8.80%     48.80% |         127     12.15%     60.96% |          94      9.00%     69.95% |         178     17.03%     86.99% |         136     13.01%    100.00% (Unspecified)
system.caches.L2Cache_Controller.Unblock::total         1045                       (Unspecified)
system.caches.L2Cache_Controller.Exclusive_Unblock |      163901     12.52%     12.52% |      163738     12.51%     25.03% |      163196     12.47%     37.50% |      163472     12.49%     49.98% |      163546     12.49%     62.48% |      163776     12.51%     74.99% |      163666     12.50%     87.49% |      163723     12.51%    100.00% (Unspecified)
system.caches.L2Cache_Controller.Exclusive_Unblock::total      1309018                       (Unspecified)
system.caches.L2Cache_Controller.NP.L1_GET_INSTR |         425     12.10%     12.10% |         456     12.99%     25.09% |         433     12.33%     37.43% |         421     11.99%     49.42% |         452     12.87%     62.29% |         449     12.79%     75.08% |         437     12.45%     87.52% |         438     12.48%    100.00% (Unspecified)
system.caches.L2Cache_Controller.NP.L1_GET_INSTR::total         3511                       (Unspecified)
system.caches.L2Cache_Controller.NP.L1_GETS |        2031     12.76%     12.76% |        1997     12.54%     25.30% |        1981     12.44%     37.74% |        2013     12.64%     50.39% |        1923     12.08%     62.47% |        1907     11.98%     74.45% |        1958     12.30%     86.75% |        2110     13.25%    100.00% (Unspecified)
system.caches.L2Cache_Controller.NP.L1_GETS::total        15920                       (Unspecified)
system.caches.L2Cache_Controller.NP.L1_GETX |      158378     12.50%     12.50% |      158310     12.50%     25.00% |      158183     12.49%     37.49% |      158277     12.50%     49.99% |      158279     12.50%     62.48% |      158497     12.51%     75.00% |      158376     12.50%     87.50% |      158322     12.50%    100.00% (Unspecified)
system.caches.L2Cache_Controller.NP.L1_GETX::total      1266622                       (Unspecified)
system.caches.L2Cache_Controller.SS.L1_GET_INSTR |        3518     12.25%     12.25% |        3653     12.72%     24.98% |        2769      9.64%     34.62% |        2951     10.28%     44.90% |        3211     11.18%     56.08% |        4238     14.76%     70.84% |        4654     16.21%     87.05% |        3718     12.95%    100.00% (Unspecified)
system.caches.L2Cache_Controller.SS.L1_GET_INSTR::total        28712                       (Unspecified)
system.caches.L2Cache_Controller.SS.L1_GETS |        1823     23.26%     23.26% |        1114     14.22%     37.48% |        1024     13.07%     50.55% |         765      9.76%     60.31% |         737      9.41%     69.72% |         595      7.59%     77.31% |         752      9.60%     86.91% |        1026     13.09%    100.00% (Unspecified)
system.caches.L2Cache_Controller.SS.L1_GETS::total         7836                       (Unspecified)
system.caches.L2Cache_Controller.SS.L1_GETX |          19     33.93%     33.93% |           0      0.00%     33.93% |           0      0.00%     33.93% |           2      3.57%     37.50% |          24     42.86%     80.36% |           3      5.36%     85.71% |           7     12.50%     98.21% |           1      1.79%    100.00% (Unspecified)
system.caches.L2Cache_Controller.SS.L1_GETX::total           56                       (Unspecified)
system.caches.L2Cache_Controller.SS.L1_UPGRADE |         107     20.30%     20.30% |          54     10.25%     30.55% |          49      9.30%     39.85% |          28      5.31%     45.16% |          56     10.63%     55.79% |          49      9.30%     65.09% |         115     21.82%     86.91% |          69     13.09%    100.00% (Unspecified)
system.caches.L2Cache_Controller.SS.L1_UPGRADE::total          527                       (Unspecified)
system.caches.L2Cache_Controller.SS.L2_Replacement |           6     10.53%     10.53% |           4      7.02%     17.54% |          10     17.54%     35.09% |          11     19.30%     54.39% |           4      7.02%     61.40% |           3      5.26%     66.67% |          14     24.56%     91.23% |           5      8.77%    100.00% (Unspecified)
system.caches.L2Cache_Controller.SS.L2_Replacement::total           57                       (Unspecified)
system.caches.L2Cache_Controller.SS.L2_Replacement_clean |         535     12.74%     12.74% |         537     12.79%     25.52% |         527     12.55%     38.07% |         510     12.14%     50.21% |         525     12.50%     62.71% |         523     12.45%     75.17% |         510     12.14%     87.31% |         533     12.69%    100.00% (Unspecified)
system.caches.L2Cache_Controller.SS.L2_Replacement_clean::total         4200                       (Unspecified)
system.caches.L2Cache_Controller.M.L1_GET_INSTR |           7     16.67%     16.67% |           7     16.67%     33.33% |           5     11.90%     45.24% |           1      2.38%     47.62% |           2      4.76%     52.38% |           7     16.67%     69.05% |           6     14.29%     83.33% |           7     16.67%    100.00% (Unspecified)
system.caches.L2Cache_Controller.M.L1_GET_INSTR::total           42                       (Unspecified)
system.caches.L2Cache_Controller.M.L1_GETS |         712     12.60%     12.60% |         761     13.46%     26.06% |         628     11.11%     37.17% |         706     12.49%     49.66% |         759     13.43%     63.08% |         636     11.25%     74.33% |         648     11.46%     85.80% |         803     14.20%    100.00% (Unspecified)
system.caches.L2Cache_Controller.M.L1_GETS::total         5653                       (Unspecified)
system.caches.L2Cache_Controller.M.L1_GETX |        2510     13.04%     13.04% |        2462     12.79%     25.82% |        2246     11.66%     37.49% |        2307     11.98%     49.47% |        2377     12.34%     61.81% |        2568     13.34%     75.15% |        2440     12.67%     87.82% |        2345     12.18%    100.00% (Unspecified)
system.caches.L2Cache_Controller.M.L1_GETX::total        19255                       (Unspecified)
system.caches.L2Cache_Controller.M.L2_Replacement |      153022     12.51%     12.51% |      152891     12.50%     25.00% |      152970     12.50%     37.51% |      152878     12.50%     50.00% |      152893     12.50%     62.50% |      152906     12.50%     75.00% |      152930     12.50%     87.50% |      152968     12.50%    100.00% (Unspecified)
system.caches.L2Cache_Controller.M.L2_Replacement::total      1223458                       (Unspecified)
system.caches.L2Cache_Controller.M.L2_Replacement_clean |         722     12.56%     12.56% |         750     13.04%     25.60% |         747     12.99%     38.59% |         729     12.68%     51.27% |         719     12.50%     63.77% |         672     11.69%     75.46% |         688     11.97%     87.43% |         723     12.57%    100.00% (Unspecified)
system.caches.L2Cache_Controller.M.L2_Replacement_clean::total         5750                       (Unspecified)
system.caches.L2Cache_Controller.MT.L1_GETS |         201     19.23%     19.23% |         102      9.76%     29.00% |         115     11.00%     40.00% |          92      8.80%     48.80% |         127     12.15%     60.96% |          94      9.00%     69.95% |         178     17.03%     86.99% |         136     13.01%    100.00% (Unspecified)
system.caches.L2Cache_Controller.MT.L1_GETS::total         1045                       (Unspecified)
system.caches.L2Cache_Controller.MT.L1_GETX |         169     15.29%     15.29% |         170     15.38%     30.68% |         123     11.13%     41.81% |         159     14.39%     56.20% |         137     12.40%     68.60% |         126     11.40%     80.00% |         127     11.49%     91.49% |          94      8.51%    100.00% (Unspecified)
system.caches.L2Cache_Controller.MT.L1_GETX::total         1105                       (Unspecified)
system.caches.L2Cache_Controller.MT.L1_PUTX |      157096     12.52%     12.52% |      156946     12.51%     25.02% |      156701     12.49%     37.51% |      156749     12.49%     50.00% |      156858     12.50%     62.50% |      156881     12.50%     75.00% |      156785     12.49%     87.49% |      156935     12.51%    100.00% (Unspecified)
system.caches.L2Cache_Controller.MT.L1_PUTX::total      1254951                       (Unspecified)
system.caches.L2Cache_Controller.MT.L2_Replacement |         204     14.44%     14.44% |         165     11.68%     26.11% |         135      9.55%     35.67% |         155     10.97%     46.64% |         161     11.39%     58.03% |         217     15.36%     73.39% |         182     12.88%     86.27% |         194     13.73%    100.00% (Unspecified)
system.caches.L2Cache_Controller.MT.L2_Replacement::total         1413                       (Unspecified)
system.caches.L2Cache_Controller.MT.L2_Replacement_clean |        6345     12.40%     12.40% |        6416     12.54%     24.94% |        6208     12.13%     37.07% |        6428     12.56%     49.63% |        6352     12.41%     62.04% |        6532     12.76%     74.80% |        6447     12.60%     87.40% |        6447     12.60%    100.00% (Unspecified)
system.caches.L2Cache_Controller.MT.L2_Replacement_clean::total        51175                       (Unspecified)
system.caches.L2Cache_Controller.M_I.L1_GET_INSTR |           5     17.86%     17.86% |           2      7.14%     25.00% |           1      3.57%     28.57% |           3     10.71%     39.29% |           2      7.14%     46.43% |           1      3.57%     50.00% |           5     17.86%     67.86% |           9     32.14%    100.00% (Unspecified)
system.caches.L2Cache_Controller.M_I.L1_GET_INSTR::total           28                       (Unspecified)
system.caches.L2Cache_Controller.M_I.L1_GETS |          22     10.19%     10.19% |          39     18.06%     28.24% |          37     17.13%     45.37% |          41     18.98%     64.35% |          22     10.19%     74.54% |          15      6.94%     81.48% |          20      9.26%     90.74% |          20      9.26%    100.00% (Unspecified)
system.caches.L2Cache_Controller.M_I.L1_GETS::total          216                       (Unspecified)
system.caches.L2Cache_Controller.M_I.L1_GETX |           0      0.00%      0.00% |           4     11.76%     11.76% |           2      5.88%     17.65% |           2      5.88%     23.53% |           6     17.65%     41.18% |           9     26.47%     67.65% |           6     17.65%     85.29% |           5     14.71%    100.00% (Unspecified)
system.caches.L2Cache_Controller.M_I.L1_GETX::total           34                       (Unspecified)
system.caches.L2Cache_Controller.M_I.Mem_Ack |      160834     12.51%     12.51% |      160763     12.50%     25.01% |      160597     12.49%     37.49% |      160711     12.50%     49.99% |      160654     12.49%     62.48% |      160853     12.51%     74.99% |      160771     12.50%     87.49% |      160870     12.51%    100.00% (Unspecified)
system.caches.L2Cache_Controller.M_I.Mem_Ack::total      1286053                       (Unspecified)
system.caches.L2Cache_Controller.MT_I.WB_Data |         200     14.28%     14.28% |         164     11.71%     25.98% |         134      9.56%     35.55% |         155     11.06%     46.61% |         159     11.35%     57.96% |         217     15.49%     73.45% |         180     12.85%     86.30% |         192     13.70%    100.00% (Unspecified)
system.caches.L2Cache_Controller.MT_I.WB_Data::total         1401                       (Unspecified)
system.caches.L2Cache_Controller.MT_I.Ack_all |           4     33.33%     33.33% |           1      8.33%     41.67% |           1      8.33%     50.00% |           0      0.00%     50.00% |           2     16.67%     66.67% |           0      0.00%     66.67% |           2     16.67%     83.33% |           2     16.67%    100.00% (Unspecified)
system.caches.L2Cache_Controller.MT_I.Ack_all::total           12                       (Unspecified)
system.caches.L2Cache_Controller.MCT_I.WB_Data |        6120     12.35%     12.35% |        6168     12.45%     24.80% |        6028     12.17%     36.96% |        6270     12.65%     49.62% |        6141     12.39%     62.01% |        6346     12.81%     74.82% |        6226     12.57%     87.38% |        6251     12.62%    100.00% (Unspecified)
system.caches.L2Cache_Controller.MCT_I.WB_Data::total        49550                       (Unspecified)
system.caches.L2Cache_Controller.MCT_I.Ack_all |         225     13.85%     13.85% |         248     15.26%     29.11% |         180     11.08%     40.18% |         158      9.72%     49.91% |         211     12.98%     62.89% |         186     11.45%     74.34% |         221     13.60%     87.94% |         196     12.06%    100.00% (Unspecified)
system.caches.L2Cache_Controller.MCT_I.Ack_all::total         1625                       (Unspecified)
system.caches.L2Cache_Controller.I_I.L1_GET_INSTR |           0      0.00%      0.00% |           0      0.00%      0.00% |           0      0.00%      0.00% |           0      0.00%      0.00% |           0      0.00%      0.00% |           1    100.00%    100.00% |           0      0.00%    100.00% |           0      0.00%    100.00% (Unspecified)
system.caches.L2Cache_Controller.I_I.L1_GET_INSTR::total            1                       (Unspecified)
system.caches.L2Cache_Controller.I_I.L1_GETS |           0      0.00%      0.00% |           0      0.00%      0.00% |           0      0.00%      0.00% |           0      0.00%      0.00% |           2    100.00%    100.00% |           0      0.00%    100.00% |           0      0.00%    100.00% |           0      0.00%    100.00% (Unspecified)
system.caches.L2Cache_Controller.I_I.L1_GETS::total            2                       (Unspecified)
system.caches.L2Cache_Controller.I_I.Ack |        2085     12.83%     12.83% |        2066     12.71%     25.53% |        1956     12.03%     37.57% |        1884     11.59%     49.15% |        2084     12.82%     61.97% |        2075     12.76%     74.74% |        2019     12.42%     87.16% |        2088     12.84%    100.00% (Unspecified)
system.caches.L2Cache_Controller.I_I.Ack::total        16257                       (Unspecified)
system.caches.L2Cache_Controller.I_I.Ack_all |         535     12.74%     12.74% |         537     12.79%     25.52% |         527     12.55%     38.07% |         510     12.14%     50.21% |         525     12.50%     62.71% |         523     12.45%     75.17% |         510     12.14%     87.31% |         533     12.69%    100.00% (Unspecified)
system.caches.L2Cache_Controller.I_I.Ack_all::total         4200                       (Unspecified)
system.caches.L2Cache_Controller.S_I.Ack |          11      9.65%      9.65% |           4      3.51%     13.16% |          21     18.42%     31.58% |          23     20.18%     51.75% |           6      5.26%     57.02% |           9      7.89%     64.91% |          21     18.42%     83.33% |          19     16.67%    100.00% (Unspecified)
system.caches.L2Cache_Controller.S_I.Ack::total          114                       (Unspecified)
system.caches.L2Cache_Controller.S_I.Ack_all |           6     10.53%     10.53% |           4      7.02%     17.54% |          10     17.54%     35.09% |          11     19.30%     54.39% |           4      7.02%     61.40% |           3      5.26%     66.67% |          14     24.56%     91.23% |           5      8.77%    100.00% (Unspecified)
system.caches.L2Cache_Controller.S_I.Ack_all::total           57                       (Unspecified)
system.caches.L2Cache_Controller.ISS.L1_GETS |          23     19.83%     19.83% |          16     13.79%     33.62% |          14     12.07%     45.69% |          19     16.38%     62.07% |           8      6.90%     68.97% |          10      8.62%     77.59% |           5      4.31%     81.90% |          21     18.10%    100.00% (Unspecified)
system.caches.L2Cache_Controller.ISS.L1_GETS::total          116                       (Unspecified)
system.caches.L2Cache_Controller.ISS.Mem_Data |        2008     12.71%     12.71% |        1981     12.53%     25.24% |        1967     12.45%     37.69% |        1994     12.62%     50.30% |        1915     12.12%     62.42% |        1897     12.00%     74.42% |        1953     12.36%     86.78% |        2089     13.22%    100.00% (Unspecified)
system.caches.L2Cache_Controller.ISS.Mem_Data::total        15804                       (Unspecified)
system.caches.L2Cache_Controller.IS.L1_GET_INSTR |         124      9.48%      9.48% |         161     12.31%     21.79% |         163     12.46%     34.25% |         172     13.15%     47.40% |         216     16.51%     63.91% |         161     12.31%     76.22% |         158     12.08%     88.30% |         153     11.70%    100.00% (Unspecified)
system.caches.L2Cache_Controller.IS.L1_GET_INSTR::total         1308                       (Unspecified)
system.caches.L2Cache_Controller.IS.L1_GETS |          80     23.88%     23.88% |          44     13.13%     37.01% |          40     11.94%     48.96% |          60     17.91%     66.87% |          18      5.37%     72.24% |          21      6.27%     78.51% |          23      6.87%     85.37% |          49     14.63%    100.00% (Unspecified)
system.caches.L2Cache_Controller.IS.L1_GETS::total          335                       (Unspecified)
system.caches.L2Cache_Controller.IS.Mem_Data |         448     12.35%     12.35% |         472     13.01%     25.37% |         447     12.32%     37.69% |         440     12.13%     49.82% |         460     12.68%     62.50% |         459     12.66%     75.16% |         442     12.19%     87.34% |         459     12.66%    100.00% (Unspecified)
system.caches.L2Cache_Controller.IS.Mem_Data::total         3627                       (Unspecified)
system.caches.L2Cache_Controller.IM.L1_GETX |           3    100.00%    100.00% |           0      0.00%    100.00% |           0      0.00%    100.00% |           0      0.00%    100.00% |           0      0.00%    100.00% |           0      0.00%    100.00% |           0      0.00%    100.00% |           0      0.00%    100.00% (Unspecified)
system.caches.L2Cache_Controller.IM.L1_GETX::total            3                       (Unspecified)
system.caches.L2Cache_Controller.IM.Mem_Data |      158376     12.50%     12.50% |      158310     12.50%     25.00% |      158183     12.49%     37.49% |      158276     12.50%     49.99% |      158278     12.50%     62.48% |      158497     12.51%     75.00% |      158376     12.50%     87.50% |      158322     12.50%    100.00% (Unspecified)
system.caches.L2Cache_Controller.IM.Mem_Data::total      1266618                       (Unspecified)
system.caches.L2Cache_Controller.SS_MB.L1_GETS |           0      0.00%      0.00% |           0      0.00%      0.00% |           1      1.61%      1.61% |           0      0.00%      1.61% |           0      0.00%      1.61% |           0      0.00%      1.61% |          54     87.10%     88.71% |           7     11.29%    100.00% (Unspecified)
system.caches.L2Cache_Controller.SS_MB.L1_GETS::total           62                       (Unspecified)
system.caches.L2Cache_Controller.SS_MB.L1_UPGRADE |           0      0.00%      0.00% |           0      0.00%      0.00% |           1    100.00%    100.00% |           0      0.00%    100.00% |           0      0.00%    100.00% |           0      0.00%    100.00% |           0      0.00%    100.00% |           0      0.00%    100.00% (Unspecified)
system.caches.L2Cache_Controller.SS_MB.L1_UPGRADE::total            1                       (Unspecified)
system.caches.L2Cache_Controller.SS_MB.Exclusive_Unblock |         126     21.61%     21.61% |          54      9.26%     30.87% |          49      8.40%     39.28% |          30      5.15%     44.43% |          80     13.72%     58.15% |          52      8.92%     67.07% |         122     20.93%     87.99% |          70     12.01%    100.00% (Unspecified)
system.caches.L2Cache_Controller.SS_MB.Exclusive_Unblock::total          583                       (Unspecified)
system.caches.L2Cache_Controller.MT_MB.L1_GETS |          10     45.45%     45.45% |           0      0.00%     45.45% |           4     18.18%     63.64% |           4     18.18%     81.82% |           0      0.00%     81.82% |           2      9.09%     90.91% |           0      0.00%     90.91% |           2      9.09%    100.00% (Unspecified)
system.caches.L2Cache_Controller.MT_MB.L1_GETS::total           22                       (Unspecified)
system.caches.L2Cache_Controller.MT_MB.L1_GETX |           3    100.00%    100.00% |           0      0.00%    100.00% |           0      0.00%    100.00% |           0      0.00%    100.00% |           0      0.00%    100.00% |           0      0.00%    100.00% |           0      0.00%    100.00% |           0      0.00%    100.00% (Unspecified)
system.caches.L2Cache_Controller.MT_MB.L1_GETX::total            3                       (Unspecified)
system.caches.L2Cache_Controller.MT_MB.Exclusive_Unblock |      163775     12.52%     12.52% |      163684     12.51%     25.03% |      163147     12.47%     37.50% |      163442     12.49%     49.99% |      163466     12.49%     62.48% |      163724     12.51%     74.99% |      163544     12.50%     87.49% |      163653     12.51%    100.00% (Unspecified)
system.caches.L2Cache_Controller.MT_MB.Exclusive_Unblock::total      1308435                       (Unspecified)
system.caches.L2Cache_Controller.MT_IIB.L1_GETS |          10     16.95%     16.95% |           0      0.00%     16.95% |           1      1.69%     18.64% |           3      5.08%     23.73% |           1      1.69%     25.42% |           3      5.08%     30.51% |          30     50.85%     81.36% |          11     18.64%    100.00% (Unspecified)
system.caches.L2Cache_Controller.MT_IIB.L1_GETS::total           59                       (Unspecified)
system.caches.L2Cache_Controller.MT_IIB.WB_Data |         121     21.72%     21.72% |          50      8.98%     30.70% |          44      7.90%     38.60% |          30      5.39%     43.99% |          73     13.11%     57.09% |          54      9.69%     66.79% |         119     21.36%     88.15% |          66     11.85%    100.00% (Unspecified)
system.caches.L2Cache_Controller.MT_IIB.WB_Data::total          557                       (Unspecified)
system.caches.L2Cache_Controller.MT_IIB.WB_Data_clean |          80     16.56%     16.56% |          52     10.77%     27.33% |          68     14.08%     41.41% |          60     12.42%     53.83% |          54     11.18%     65.01% |          40      8.28%     73.29% |          59     12.22%     85.51% |          70     14.49%    100.00% (Unspecified)
system.caches.L2Cache_Controller.MT_IIB.WB_Data_clean::total          483                       (Unspecified)
system.caches.L2Cache_Controller.MT_IIB.Unblock |           0      0.00%      0.00% |           0      0.00%      0.00% |           3     60.00%     60.00% |           2     40.00%    100.00% |           0      0.00%    100.00% |           0      0.00%    100.00% |           0      0.00%    100.00% |           0      0.00%    100.00% (Unspecified)
system.caches.L2Cache_Controller.MT_IIB.Unblock::total            5                       (Unspecified)
system.caches.L2Cache_Controller.MT_IB.WB_Data |           0      0.00%      0.00% |           0      0.00%      0.00% |           3     60.00%     60.00% |           2     40.00%    100.00% |           0      0.00%    100.00% |           0      0.00%    100.00% |           0      0.00%    100.00% |           0      0.00%    100.00% (Unspecified)
system.caches.L2Cache_Controller.MT_IB.WB_Data::total            5                       (Unspecified)
system.caches.L2Cache_Controller.MT_SB.L1_GETS |           1     25.00%     25.00% |           0      0.00%     25.00% |           1     25.00%     50.00% |           1     25.00%     75.00% |           0      0.00%     75.00% |           0      0.00%     75.00% |           0      0.00%     75.00% |           1     25.00%    100.00% (Unspecified)
system.caches.L2Cache_Controller.MT_SB.L1_GETS::total            4                       (Unspecified)
system.caches.L2Cache_Controller.MT_SB.L1_UPGRADE |           2     22.22%     22.22% |           0      0.00%     22.22% |           0      0.00%     22.22% |           0      0.00%     22.22% |           0      0.00%     22.22% |           0      0.00%     22.22% |           7     77.78%    100.00% |           0      0.00%    100.00% (Unspecified)
system.caches.L2Cache_Controller.MT_SB.L1_UPGRADE::total            9                       (Unspecified)
system.caches.L2Cache_Controller.MT_SB.Unblock |         201     19.33%     19.33% |         102      9.81%     29.13% |         112     10.77%     39.90% |          90      8.65%     48.56% |         127     12.21%     60.77% |          94      9.04%     69.81% |         178     17.12%     86.92% |         136     13.08%    100.00% (Unspecified)
system.caches.L2Cache_Controller.MT_SB.Unblock::total         1040                       (Unspecified)
system.caches.RequestType.LD.latency_hist_seqr::bucket_size          512                       (Unspecified)
system.caches.RequestType.LD.latency_hist_seqr::max_bucket         5119                       (Unspecified)
system.caches.RequestType.LD.latency_hist_seqr::samples    282955454                       (Unspecified)
system.caches.RequestType.LD.latency_hist_seqr::mean     1.037108                       (Unspecified)
system.caches.RequestType.LD.latency_hist_seqr::gmean     1.000515                       (Unspecified)
system.caches.RequestType.LD.latency_hist_seqr::stdev     5.431873                       (Unspecified)
system.caches.RequestType.LD.latency_hist_seqr |   282946472    100.00%    100.00% |        7998      0.00%    100.00% |         681      0.00%    100.00% |          69      0.00%    100.00% |         124      0.00%    100.00% |          91      0.00%    100.00% |          19      0.00%    100.00% |           0      0.00%    100.00% |           0      0.00%    100.00% |           0      0.00%    100.00% (Unspecified)
system.caches.RequestType.LD.latency_hist_seqr::total    282955454                       (Unspecified)
system.caches.RequestType.LD.hit_latency_hist_seqr::bucket_size            1                       (Unspecified)
system.caches.RequestType.LD.hit_latency_hist_seqr::max_bucket            9                       (Unspecified)
system.caches.RequestType.LD.hit_latency_hist_seqr::samples    282924549                       (Unspecified)
system.caches.RequestType.LD.hit_latency_hist_seqr::mean     1.000001                       (Unspecified)
system.caches.RequestType.LD.hit_latency_hist_seqr::gmean     1.000001                       (Unspecified)
system.caches.RequestType.LD.hit_latency_hist_seqr::stdev     0.001125                       (Unspecified)
system.caches.RequestType.LD.hit_latency_hist_seqr |           0      0.00%      0.00% |   282924191    100.00%    100.00% |         358      0.00%    100.00% |           0      0.00%    100.00% |           0      0.00%    100.00% |           0      0.00%    100.00% |           0      0.00%    100.00% |           0      0.00%    100.00% |           0      0.00%    100.00% |           0      0.00%    100.00% (Unspecified)
system.caches.RequestType.LD.hit_latency_hist_seqr::total    282924549                       (Unspecified)
system.caches.RequestType.LD.miss_latency_hist_seqr::bucket_size          512                       (Unspecified)
system.caches.RequestType.LD.miss_latency_hist_seqr::max_bucket         5119                       (Unspecified)
system.caches.RequestType.LD.miss_latency_hist_seqr::samples        30905                       (Unspecified)
system.caches.RequestType.LD.miss_latency_hist_seqr::mean   340.740722                       (Unspecified)
system.caches.RequestType.LD.miss_latency_hist_seqr::gmean   110.286178                       (Unspecified)
system.caches.RequestType.LD.miss_latency_hist_seqr::stdev   393.361926                       (Unspecified)
system.caches.RequestType.LD.miss_latency_hist_seqr |       21923     70.94%     70.94% |        7998     25.88%     96.82% |         681      2.20%     99.02% |          69      0.22%     99.24% |         124      0.40%     99.64% |          91      0.29%     99.94% |          19      0.06%    100.00% |           0      0.00%    100.00% |           0      0.00%    100.00% |           0      0.00%    100.00% (Unspecified)
system.caches.RequestType.LD.miss_latency_hist_seqr::total        30905                       (Unspecified)
system.caches.RequestType.ST.latency_hist_seqr::bucket_size          512                       (Unspecified)
system.caches.RequestType.ST.latency_hist_seqr::max_bucket         5119                       (Unspecified)
system.caches.RequestType.ST.latency_hist_seqr::samples     45430056                       (Unspecified)
system.caches.RequestType.ST.latency_hist_seqr::mean    15.108674                       (Unspecified)
system.caches.RequestType.ST.latency_hist_seqr::gmean     1.190858                       (Unspecified)
system.caches.RequestType.ST.latency_hist_seqr::stdev    99.384515                       (Unspecified)
system.caches.RequestType.ST.latency_hist_seqr |    44929757     98.90%     98.90% |      463527      1.02%     99.92% |       15374      0.03%     99.95% |        8616      0.02%     99.97% |        8023      0.02%     99.99% |        4573      0.01%    100.00% |         186      0.00%    100.00% |           0      0.00%    100.00% |           0      0.00%    100.00% |           0      0.00%    100.00% (Unspecified)
system.caches.RequestType.ST.latency_hist_seqr::total     45430056                       (Unspecified)
system.caches.RequestType.ST.hit_latency_hist_seqr::bucket_size          256                       (Unspecified)
system.caches.RequestType.ST.hit_latency_hist_seqr::max_bucket         2559                       (Unspecified)
system.caches.RequestType.ST.hit_latency_hist_seqr::samples     44144892                       (Unspecified)
system.caches.RequestType.ST.hit_latency_hist_seqr::mean     1.006735                       (Unspecified)
system.caches.RequestType.ST.hit_latency_hist_seqr::gmean     1.004364                       (Unspecified)
system.caches.RequestType.ST.hit_latency_hist_seqr::stdev     0.572800                       (Unspecified)
system.caches.RequestType.ST.hit_latency_hist_seqr |    44144858    100.00%    100.00% |          19      0.00%    100.00% |          10      0.00%    100.00% |           4      0.00%    100.00% |           0      0.00%    100.00% |           0      0.00%    100.00% |           0      0.00%    100.00% |           1      0.00%    100.00% |           0      0.00%    100.00% |           0      0.00%    100.00% (Unspecified)
system.caches.RequestType.ST.hit_latency_hist_seqr::total     44144892                       (Unspecified)
system.caches.RequestType.ST.miss_latency_hist_seqr::bucket_size          512                       (Unspecified)
system.caches.RequestType.ST.miss_latency_hist_seqr::max_bucket         5119                       (Unspecified)
system.caches.RequestType.ST.miss_latency_hist_seqr::samples      1285164                       (Unspecified)
system.caches.RequestType.ST.miss_latency_hist_seqr::mean   499.504897                       (Unspecified)
system.caches.RequestType.ST.miss_latency_hist_seqr::gmean   413.682146                       (Unspecified)
system.caches.RequestType.ST.miss_latency_hist_seqr::stdev   328.140690                       (Unspecified)
system.caches.RequestType.ST.miss_latency_hist_seqr |      784880     61.07%     61.07% |      463513     36.07%     97.14% |       15374      1.20%     98.34% |        8615      0.67%     99.01% |        8023      0.62%     99.63% |        4573      0.36%     99.99% |         186      0.01%    100.00% |           0      0.00%    100.00% |           0      0.00%    100.00% |           0      0.00%    100.00% (Unspecified)
system.caches.RequestType.ST.miss_latency_hist_seqr::total      1285164                       (Unspecified)
system.caches.RequestType.IFETCH.latency_hist_seqr::bucket_size          512                       (Unspecified)
system.caches.RequestType.IFETCH.latency_hist_seqr::max_bucket         5119                       (Unspecified)
system.caches.RequestType.IFETCH.latency_hist_seqr::samples     76727572                       (Unspecified)
system.caches.RequestType.IFETCH.latency_hist_seqr::mean     1.023443                       (Unspecified)
system.caches.RequestType.IFETCH.latency_hist_seqr::gmean     1.001319                       (Unspecified)
system.caches.RequestType.IFETCH.latency_hist_seqr::stdev     2.941707                       (Unspecified)
system.caches.RequestType.IFETCH.latency_hist_seqr |    76727254    100.00%    100.00% |         263      0.00%    100.00% |          17      0.00%    100.00% |          22      0.00%    100.00% |          10      0.00%    100.00% |           6      0.00%    100.00% |           0      0.00%    100.00% |           0      0.00%    100.00% |           0      0.00%    100.00% |           0      0.00%    100.00% (Unspecified)
system.caches.RequestType.IFETCH.latency_hist_seqr::total     76727572                       (Unspecified)
system.caches.RequestType.IFETCH.hit_latency_hist_seqr::bucket_size            1                       (Unspecified)
system.caches.RequestType.IFETCH.hit_latency_hist_seqr::max_bucket            9                       (Unspecified)
system.caches.RequestType.IFETCH.hit_latency_hist_seqr::samples     76693999                       (Unspecified)
system.caches.RequestType.IFETCH.hit_latency_hist_seqr::mean            1                       (Unspecified)
system.caches.RequestType.IFETCH.hit_latency_hist_seqr::gmean            1                       (Unspecified)
system.caches.RequestType.IFETCH.hit_latency_hist_seqr |           0      0.00%      0.00% |    76693999    100.00%    100.00% |           0      0.00%    100.00% |           0      0.00%    100.00% |           0      0.00%    100.00% |           0      0.00%    100.00% |           0      0.00%    100.00% |           0      0.00%    100.00% |           0      0.00%    100.00% |           0      0.00%    100.00% (Unspecified)
system.caches.RequestType.IFETCH.hit_latency_hist_seqr::total     76693999                       (Unspecified)
system.caches.RequestType.IFETCH.miss_latency_hist_seqr::bucket_size          512                       (Unspecified)
system.caches.RequestType.IFETCH.miss_latency_hist_seqr::max_bucket         5119                       (Unspecified)
system.caches.RequestType.IFETCH.miss_latency_hist_seqr::samples        33573                       (Unspecified)
system.caches.RequestType.IFETCH.miss_latency_hist_seqr::mean    54.576833                       (Unspecified)
system.caches.RequestType.IFETCH.miss_latency_hist_seqr::gmean    20.336977                       (Unspecified)
system.caches.RequestType.IFETCH.miss_latency_hist_seqr::stdev   130.031804                       (Unspecified)
system.caches.RequestType.IFETCH.miss_latency_hist_seqr |       33255     99.05%     99.05% |         263      0.78%     99.84% |          17      0.05%     99.89% |          22      0.07%     99.95% |          10      0.03%     99.98% |           6      0.02%    100.00% |           0      0.00%    100.00% |           0      0.00%    100.00% |           0      0.00%    100.00% |           0      0.00%    100.00% (Unspecified)
system.caches.RequestType.IFETCH.miss_latency_hist_seqr::total        33573                       (Unspecified)
system.caches.RequestType.RMW_Read.latency_hist_seqr::bucket_size          512                       (Unspecified)
system.caches.RequestType.RMW_Read.latency_hist_seqr::max_bucket         5119                       (Unspecified)
system.caches.RequestType.RMW_Read.latency_hist_seqr::samples        24006                       (Unspecified)
system.caches.RequestType.RMW_Read.latency_hist_seqr::mean    22.031909                       (Unspecified)
system.caches.RequestType.RMW_Read.latency_hist_seqr::gmean     1.480181                       (Unspecified)
system.caches.RequestType.RMW_Read.latency_hist_seqr::stdev   118.439485                       (Unspecified)
system.caches.RequestType.RMW_Read.latency_hist_seqr |       23636     98.46%     98.46% |         341      1.42%     99.88% |          14      0.06%     99.94% |           2      0.01%     99.95% |           9      0.04%     99.98% |           3      0.01%    100.00% |           1      0.00%    100.00% |           0      0.00%    100.00% |           0      0.00%    100.00% |           0      0.00%    100.00% (Unspecified)
system.caches.RequestType.RMW_Read.latency_hist_seqr::total        24006                       (Unspecified)
system.caches.RequestType.RMW_Read.hit_latency_hist_seqr::bucket_size          256                       (Unspecified)
system.caches.RequestType.RMW_Read.hit_latency_hist_seqr::max_bucket         2559                       (Unspecified)
system.caches.RequestType.RMW_Read.hit_latency_hist_seqr::samples        22310                       (Unspecified)
system.caches.RequestType.RMW_Read.hit_latency_hist_seqr::mean     3.244375                       (Unspecified)
system.caches.RequestType.RMW_Read.hit_latency_hist_seqr::gmean     1.080425                       (Unspecified)
system.caches.RequestType.RMW_Read.hit_latency_hist_seqr::stdev    37.050437                       (Unspecified)
system.caches.RequestType.RMW_Read.hit_latency_hist_seqr |       22227     99.63%     99.63% |          46      0.21%     99.83% |          26      0.12%     99.95% |           9      0.04%     99.99% |           0      0.00%     99.99% |           1      0.00%    100.00% |           0      0.00%    100.00% |           0      0.00%    100.00% |           1      0.00%    100.00% |           0      0.00%    100.00% (Unspecified)
system.caches.RequestType.RMW_Read.hit_latency_hist_seqr::total        22310                       (Unspecified)
system.caches.RequestType.RMW_Read.miss_latency_hist_seqr::bucket_size          512                       (Unspecified)
system.caches.RequestType.RMW_Read.miss_latency_hist_seqr::max_bucket         5119                       (Unspecified)
system.caches.RequestType.RMW_Read.miss_latency_hist_seqr::samples         1696                       (Unspecified)
system.caches.RequestType.RMW_Read.miss_latency_hist_seqr::mean   269.172170                       (Unspecified)
system.caches.RequestType.RMW_Read.miss_latency_hist_seqr::gmean    93.067032                       (Unspecified)
system.caches.RequestType.RMW_Read.miss_latency_hist_seqr::stdev   338.879004                       (Unspecified)
[...]
system.o3Cpu7.iew.predictedTakenIncorrect         2520                       # Number of branches that were predicted taken incorrectly (Count)
system.o3Cpu7.iew.predictedNotTakenIncorrect         1407                       # Number of branches that were predicted not taken incorrectly (Count)
system.o3Cpu7.iew.branchMispredicts              3927                       # Number of branch mispredicts detected at execute (Count)
system.o3Cpu7.iew.instsToCommit             226316263                       # Cumulative count of insts sent to commit (Count)
system.o3Cpu7.iew.writebackCount            226315688                       # Cumulative count of insts written-back (Count)
system.o3Cpu7.iew.producerInst              197406703                       # Number of instructions producing a value (Count)
system.o3Cpu7.iew.consumerInst              316355162                       # Number of instructions consuming a value (Count)
system.o3Cpu7.iew.wbRate                     2.011444                       # Insts written-back per cycle ((Count/Cycle))
system.o3Cpu7.iew.wbFanout                   0.624003                       # Average fanout of values written-back ((Count/Count))
system.o3Cpu7.interrupts.clk_domain.clock         3200                       # Clock period in ticks (Tick)
system.o3Cpu7.lsq0.forwLoads                   483651                       # Number of loads that had data forwarded from stores (Count)
system.o3Cpu7.lsq0.squashedLoads                 9239                       # Number of loads squashed (Count)
system.o3Cpu7.lsq0.ignoredResponses                22                       # Number of memory responses ignored because the instruction is squashed (Count)
system.o3Cpu7.lsq0.memOrderViolation              522                       # Number of memory ordering violations (Count)
system.o3Cpu7.lsq0.squashedStores                6028                       # Number of stores squashed (Count)
system.o3Cpu7.lsq0.rescheduledLoads                18                       # Number of loads that were rescheduled (Count)
system.o3Cpu7.lsq0.blockedByCache                1510                       # Number of times an access to memory failed due to the cache being blocked (Count)
system.o3Cpu7.lsq0.loadToUse::samples        51476064                       # Distribution of cycle latency between the first time a load is issued and its completion (Unspecified)
system.o3Cpu7.lsq0.loadToUse::mean           3.096429                       # Distribution of cycle latency between the first time a load is issued and its completion (Unspecified)
system.o3Cpu7.lsq0.loadToUse::stdev          7.951540                       # Distribution of cycle latency between the first time a load is issued and its completion (Unspecified)
system.o3Cpu7.lsq0.loadToUse::0-9            51468114     99.98%     99.98% # Distribution of cycle latency between the first time a load is issued and its completion (Unspecified)
system.o3Cpu7.lsq0.loadToUse::10-19              1289      0.00%     99.99% # Distribution of cycle latency between the first time a load is issued and its completion (Unspecified)
system.o3Cpu7.lsq0.loadToUse::20-29               623      0.00%     99.99% # Distribution of cycle latency between the first time a load is issued and its completion (Unspecified)
system.o3Cpu7.lsq0.loadToUse::30-39               103      0.00%     99.99% # Distribution of cycle latency between the first time a load is issued and its completion (Unspecified)
system.o3Cpu7.lsq0.loadToUse::40-49                91      0.00%     99.99% # Distribution of cycle latency between the first time a load is issued and its completion (Unspecified)
system.o3Cpu7.lsq0.loadToUse::50-59                31      0.00%     99.99% # Distribution of cycle latency between the first time a load is issued and its completion (Unspecified)
system.o3Cpu7.lsq0.loadToUse::60-69                61      0.00%     99.99% # Distribution of cycle latency between the first time a load is issued and its completion (Unspecified)
system.o3Cpu7.lsq0.loadToUse::70-79                58      0.00%     99.99% # Distribution of cycle latency between the first time a load is issued and its completion (Unspecified)
system.o3Cpu7.lsq0.loadToUse::80-89                45      0.00%     99.99% # Distribution of cycle latency between the first time a load is issued and its completion (Unspecified)
system.o3Cpu7.lsq0.loadToUse::90-99                57      0.00%     99.99% # Distribution of cycle latency between the first time a load is issued and its completion (Unspecified)
system.o3Cpu7.lsq0.loadToUse::100-109              31      0.00%     99.99% # Distribution of cycle latency between the first time a load is issued and its completion (Unspecified)
system.o3Cpu7.lsq0.loadToUse::110-119              33      0.00%     99.99% # Distribution of cycle latency between the first time a load is issued and its completion (Unspecified)
system.o3Cpu7.lsq0.loadToUse::120-129              14      0.00%     99.99% # Distribution of cycle latency between the first time a load is issued and its completion (Unspecified)
system.o3Cpu7.lsq0.loadToUse::130-139              23      0.00%     99.99% # Distribution of cycle latency between the first time a load is issued and its completion (Unspecified)
system.o3Cpu7.lsq0.loadToUse::140-149              19      0.00%     99.99% # Distribution of cycle latency between the first time a load is issued and its completion (Unspecified)
system.o3Cpu7.lsq0.loadToUse::150-159              10      0.00%     99.99% # Distribution of cycle latency between the first time a load is issued and its completion (Unspecified)
system.o3Cpu7.lsq0.loadToUse::160-169              12      0.00%     99.99% # Distribution of cycle latency between the first time a load is issued and its completion (Unspecified)
system.o3Cpu7.lsq0.loadToUse::170-179               7      0.00%     99.99% # Distribution of cycle latency between the first time a load is issued and its completion (Unspecified)
system.o3Cpu7.lsq0.loadToUse::180-189              10      0.00%     99.99% # Distribution of cycle latency between the first time a load is issued and its completion (Unspecified)
system.o3Cpu7.lsq0.loadToUse::190-199              15      0.00%     99.99% # Distribution of cycle latency between the first time a load is issued and its completion (Unspecified)
system.o3Cpu7.lsq0.loadToUse::200-209              26      0.00%     99.99% # Distribution of cycle latency between the first time a load is issued and its completion (Unspecified)
system.o3Cpu7.lsq0.loadToUse::210-219              25      0.00%     99.99% # Distribution of cycle latency between the first time a load is issued and its completion (Unspecified)
system.o3Cpu7.lsq0.loadToUse::220-229              95      0.00%     99.99% # Distribution of cycle latency between the first time a load is issued and its completion (Unspecified)
system.o3Cpu7.lsq0.loadToUse::230-239              45      0.00%     99.99% # Distribution of cycle latency between the first time a load is issued and its completion (Unspecified)
system.o3Cpu7.lsq0.loadToUse::240-249              26      0.00%     99.99% # Distribution of cycle latency between the first time a load is issued and its completion (Unspecified)
system.o3Cpu7.lsq0.loadToUse::250-259              27      0.00%     99.99% # Distribution of cycle latency between the first time a load is issued and its completion (Unspecified)
system.o3Cpu7.lsq0.loadToUse::260-269              12      0.00%     99.99% # Distribution of cycle latency between the first time a load is issued and its completion (Unspecified)
system.o3Cpu7.lsq0.loadToUse::270-279               3      0.00%     99.99% # Distribution of cycle latency between the first time a load is issued and its completion (Unspecified)
system.o3Cpu7.lsq0.loadToUse::280-289               7      0.00%     99.99% # Distribution of cycle latency between the first time a load is issued and its completion (Unspecified)
system.o3Cpu7.lsq0.loadToUse::290-299              87      0.00%     99.99% # Distribution of cycle latency between the first time a load is issued and its completion (Unspecified)
system.o3Cpu7.lsq0.loadToUse::overflows          5065      0.01%    100.00% # Distribution of cycle latency between the first time a load is issued and its completion (Unspecified)
system.o3Cpu7.lsq0.loadToUse::min_value             2                       # Distribution of cycle latency between the first time a load is issued and its completion (Unspecified)
system.o3Cpu7.lsq0.loadToUse::max_value          3103                       # Distribution of cycle latency between the first time a load is issued and its completion (Unspecified)
system.o3Cpu7.lsq0.loadToUse::total          51476064                       # Distribution of cycle latency between the first time a load is issued and its completion (Unspecified)
system.o3Cpu7.mmu.dtb.rdAccesses             51483093                       # TLB accesses on read requests (Count)
system.o3Cpu7.mmu.dtb.wrAccesses              5709324                       # TLB accesses on write requests (Count)
system.o3Cpu7.mmu.dtb.rdMisses                    975                       # TLB misses on read requests (Count)
system.o3Cpu7.mmu.dtb.wrMisses                    579                       # TLB misses on write requests (Count)
system.o3Cpu7.mmu.dtb.walker.power_state.pwrStateResidencyTicks::UNDEFINED  25497319800                       # Cumulative time (in ticks) in various power states (Tick)
system.o3Cpu7.mmu.itb.rdAccesses                    0                       # TLB accesses on read requests (Count)
system.o3Cpu7.mmu.itb.wrAccesses              9598815                       # TLB accesses on write requests (Count)
system.o3Cpu7.mmu.itb.rdMisses                      0                       # TLB misses on read requests (Count)
system.o3Cpu7.mmu.itb.wrMisses                     53                       # TLB misses on write requests (Count)
system.o3Cpu7.mmu.itb.walker.power_state.pwrStateResidencyTicks::UNDEFINED  25497319800                       # Cumulative time (in ticks) in various power states (Tick)
system.o3Cpu7.power_state.numTransitions            6                       # Number of power state transitions (Count)
system.o3Cpu7.power_state.ticksClkGated::samples            3                       # Distribution of time spent in the clock gated state (Tick)
system.o3Cpu7.power_state.ticksClkGated::mean 660153133.333333                       # Distribution of time spent in the clock gated state (Tick)
system.o3Cpu7.power_state.ticksClkGated::stdev 437346342.673462                       # Distribution of time spent in the clock gated state (Tick)
system.o3Cpu7.power_state.ticksClkGated::1000-5e+10            3    100.00%    100.00% # Distribution of time spent in the clock gated state (Tick)
system.o3Cpu7.power_state.ticksClkGated::min_value    165999000                       # Distribution of time spent in the clock gated state (Tick)
system.o3Cpu7.power_state.ticksClkGated::max_value    997400000                       # Distribution of time spent in the clock gated state (Tick)
system.o3Cpu7.power_state.ticksClkGated::total            3                       # Distribution of time spent in the clock gated state (Tick)
system.o3Cpu7.power_state.pwrStateResidencyTicks::ON  11341047800                       # Cumulative time (in ticks) in various power states (Tick)
system.o3Cpu7.power_state.pwrStateResidencyTicks::CLK_GATED   1980459400                       # Cumulative time (in ticks) in various power states (Tick)
system.o3Cpu7.power_state.pwrStateResidencyTicks::OFF  12175812600                       # Cumulative time (in ticks) in various power states (Tick)
system.o3Cpu7.rename.squashCycles                4281                       # Number of cycles rename is squashing (Cycle)
system.o3Cpu7.rename.idleCycles               9954414                       # Number of cycles rename is idle (Cycle)
system.o3Cpu7.rename.blockCycles             25107756                       # Number of cycles rename is blocking (Cycle)
system.o3Cpu7.rename.serializeStallCycles       146806                       # count of cycles rename stalled for serializing inst (Cycle)
system.o3Cpu7.rename.runCycles               32066300                       # Number of cycles rename is running (Cycle)
system.o3Cpu7.rename.unblockCycles           45168861                       # Number of cycles rename is unblocking (Cycle)
system.o3Cpu7.rename.renamedInsts           226355798                       # Number of instructions processed by rename (Count)
system.o3Cpu7.rename.ROBFullEvents               1659                       # Number of times rename has blocked due to ROB full (Count)
system.o3Cpu7.rename.IQFullEvents                8306                       # Number of times rename has blocked due to IQ full (Count)
system.o3Cpu7.rename.LQFullEvents               27902                       # Number of times rename has blocked due to LQ full (Count)
system.o3Cpu7.rename.SQFullEvents            45105616                       # Number of times rename has blocked due to SQ full (Count)
system.o3Cpu7.rename.renamedOperands        247034618                       # Number of destination operands rename has renamed (Count)
system.o3Cpu7.rename.lookups                587910960                       # Number of register rename lookups that rename has made (Count)
system.o3Cpu7.rename.intLookups              87730180                       # Number of integer rename lookups (Count)
system.o3Cpu7.rename.fpLookups              321650009                       # Number of floating rename lookups (Count)
system.o3Cpu7.rename.committedMaps          246918551                       # Number of HB maps that are committed (Count)
system.o3Cpu7.rename.undoneMaps                116005                       # Number of HB maps that are undone due to squashing (Count)
system.o3Cpu7.rename.serializing                 1465                       # count of serializing insts renamed (Count)
system.o3Cpu7.rename.tempSerializing             1549                       # count of temporary serializing insts renamed (Count)
system.o3Cpu7.rename.skidInsts                1408629                       # count of insts added to the skid buffer (Count)
system.o3Cpu7.rob.reads                     323642288                       # The number of ROB reads (Count)
system.o3Cpu7.rob.writes                    452696258                       # The number of ROB writes (Count)
system.o3Cpu7.thread_0.numInsts             108116377                       # Number of Instructions committed (Count)
system.o3Cpu7.thread_0.numOps               226278556                       # Number of Ops committed (Count)
system.o3Cpu7.thread_0.numMemRefs                   0                       # Number of Memory References (Count)
system.pc.bad_addr.power_state.pwrStateResidencyTicks::UNDEFINED  25497319800                       # Cumulative time (in ticks) in various power states (Tick)
system.pc.com_1.power_state.pwrStateResidencyTicks::UNDEFINED  25497319800                       # Cumulative time (in ticks) in various power states (Tick)
system.pc.default_bus.power_state.pwrStateResidencyTicks::UNDEFINED  25497319800                       # Cumulative time (in ticks) in various power states (Tick)
system.pc.empty_isa.power_state.pwrStateResidencyTicks::UNDEFINED  25497319800                       # Cumulative time (in ticks) in various power states (Tick)
system.pc.fake_com_2.power_state.pwrStateResidencyTicks::UNDEFINED  25497319800                       # Cumulative time (in ticks) in various power states (Tick)
system.pc.fake_com_3.power_state.pwrStateResidencyTicks::UNDEFINED  25497319800                       # Cumulative time (in ticks) in various power states (Tick)
system.pc.fake_com_4.power_state.pwrStateResidencyTicks::UNDEFINED  25497319800                       # Cumulative time (in ticks) in various power states (Tick)
system.pc.fake_floppy.power_state.pwrStateResidencyTicks::UNDEFINED  25497319800                       # Cumulative time (in ticks) in various power states (Tick)
system.pc.pci_host.power_state.pwrStateResidencyTicks::UNDEFINED  25497319800                       # Cumulative time (in ticks) in various power states (Tick)
system.pc.south_bridge.cmos.power_state.pwrStateResidencyTicks::UNDEFINED  25497319800                       # Cumulative time (in ticks) in various power states (Tick)
system.pc.south_bridge.dma1.power_state.pwrStateResidencyTicks::UNDEFINED  25497319800                       # Cumulative time (in ticks) in various power states (Tick)
system.pc.south_bridge.ide.disks0.IdeDisk.dmaReadFullPages            0                       # Number of full page size DMA reads (not PRD). (Count)
system.pc.south_bridge.ide.disks0.IdeDisk.dmaReadBytes            0                       # Number of bytes transfered via DMA reads (not PRD). (Byte)
system.pc.south_bridge.ide.disks0.IdeDisk.dmaReadTxs            0                       # Number of DMA read transactions (not PRD). (Count)
system.pc.south_bridge.ide.disks0.IdeDisk.dmaWriteFullPages            0                       # Number of full page size DMA writes. (Count)
system.pc.south_bridge.ide.disks0.IdeDisk.dmaWriteBytes            0                       # Number of bytes transfered via DMA writes. (Byte)
system.pc.south_bridge.ide.disks0.IdeDisk.dmaWriteTxs            0                       # Number of DMA write transactions. (Count)
system.pc.south_bridge.ide.disks1.IdeDisk.dmaReadFullPages            0                       # Number of full page size DMA reads (not PRD). (Count)
system.pc.south_bridge.ide.disks1.IdeDisk.dmaReadBytes            0                       # Number of bytes transfered via DMA reads (not PRD). (Byte)
system.pc.south_bridge.ide.disks1.IdeDisk.dmaReadTxs            0                       # Number of DMA read transactions (not PRD). (Count)
system.pc.south_bridge.ide.disks1.IdeDisk.dmaWriteFullPages            0                       # Number of full page size DMA writes. (Count)
system.pc.south_bridge.ide.disks1.IdeDisk.dmaWriteBytes            0                       # Number of bytes transfered via DMA writes. (Byte)
system.pc.south_bridge.ide.disks1.IdeDisk.dmaWriteTxs            0                       # Number of DMA write transactions. (Count)
system.pc.south_bridge.ide.power_state.pwrStateResidencyTicks::UNDEFINED  25497319800                       # Cumulative time (in ticks) in various power states (Tick)
system.pc.south_bridge.io_apic.power_state.pwrStateResidencyTicks::UNDEFINED  25497319800                       # Cumulative time (in ticks) in various power states (Tick)
system.pc.south_bridge.keyboard.power_state.pwrStateResidencyTicks::UNDEFINED  25497319800                       # Cumulative time (in ticks) in various power states (Tick)
system.pc.south_bridge.pic1.power_state.pwrStateResidencyTicks::UNDEFINED  25497319800                       # Cumulative time (in ticks) in various power states (Tick)
system.pc.south_bridge.pic2.power_state.pwrStateResidencyTicks::UNDEFINED  25497319800                       # Cumulative time (in ticks) in various power states (Tick)
system.pc.south_bridge.pit.power_state.pwrStateResidencyTicks::UNDEFINED  25497319800                       # Cumulative time (in ticks) in various power states (Tick)
system.pc.south_bridge.speaker.power_state.pwrStateResidencyTicks::UNDEFINED  25497319800                       # Cumulative time (in ticks) in various power states (Tick)
system.workload.inst.arm                            0                       # number of arm instructions executed (Count)
system.workload.inst.quiesce                        0                       # number of quiesce instructions executed (Count)

---------- End Simulation Statistics   ----------
