
---------- Begin Simulation Statistics ----------
simSeconds                                   0.045785                       # Number of seconds simulated (Second)
simTicks                                  45785339000                       # Number of ticks simulated (Tick)
finalTick                                95848873300400                       # Number of ticks from beginning of simulation (restored from checkpoints and never reset) (Tick)
simFreq                                  1000000000000                       # The number of ticks per simulated second ((Tick/Second))
hostSeconds                                   8815.68                       # Real time elapsed on the host (Second)
hostTickRate                                  5193626                       # The number of ticks simulated per host second (ticks/s) ((Tick/Second))
hostMemory                                   19930436                       # Number of bytes of host memory used (Byte)
simInsts                                    388534909                       # Number of instructions simulated (Count)
simOps                                      680305940                       # Number of ops (including micro ops) simulated (Count)
hostInstRate                                    44073                       # Simulator instruction rate (inst/s) ((Count/Second))
hostOpRate                                      77170                       # Simulator op (including micro ops) rate (op/s) ((Count/Second))
system.caches.delayHistogram::bucket_size            8                       # delay histogram for all message (Unspecified)
system.caches.delayHistogram::max_bucket           79                       # delay histogram for all message (Unspecified)
system.caches.delayHistogram::samples        21557859                       # delay histogram for all message (Unspecified)
system.caches.delayHistogram::mean           0.019978                       # delay histogram for all message (Unspecified)
system.caches.delayHistogram::stdev          0.446361                       # delay histogram for all message (Unspecified)
system.caches.delayHistogram             |    21530573     99.87%     99.87% |       24603      0.11%     99.99% |        1722      0.01%    100.00% |         518      0.00%    100.00% |         238      0.00%    100.00% |          70      0.00%    100.00% |          42      0.00%    100.00% |          56      0.00%    100.00% |          37      0.00%    100.00% |           0      0.00%    100.00% # delay histogram for all message (Unspecified)
system.caches.delayHistogram::total          21557859                       # delay histogram for all message (Unspecified)
system.caches.m_outstandReqHistSeqr::bucket_size            2                       (Unspecified)
system.caches.m_outstandReqHistSeqr::max_bucket           19                       (Unspecified)
system.caches.m_outstandReqHistSeqr::samples    145933452                       (Unspecified)
system.caches.m_outstandReqHistSeqr::mean     1.048560                       (Unspecified)
system.caches.m_outstandReqHistSeqr::gmean     1.033255                       (Unspecified)
system.caches.m_outstandReqHistSeqr::stdev     0.238220                       (Unspecified)
system.caches.m_outstandReqHistSeqr      |   139215627     95.40%     95.40% |     6629695      4.54%     99.94% |       64034      0.04%     99.98% |       17502      0.01%    100.00% |        4106      0.00%    100.00% |        1777      0.00%    100.00% |         548      0.00%    100.00% |         146      0.00%    100.00% |          17      0.00%    100.00% |           0      0.00%    100.00% (Unspecified)
system.caches.m_outstandReqHistSeqr::total    145933452                       (Unspecified)
system.caches.m_latencyHistSeqr::bucket_size          512                       (Unspecified)
system.caches.m_latencyHistSeqr::max_bucket         5119                       (Unspecified)
system.caches.m_latencyHistSeqr::samples    145937611                       (Unspecified)
system.caches.m_latencyHistSeqr::mean       11.572178                       (Unspecified)
system.caches.m_latencyHistSeqr::gmean       1.138840                       (Unspecified)
system.caches.m_latencyHistSeqr::stdev      79.586457                       (Unspecified)
system.caches.m_latencyHistSeqr          |   145454296     99.67%     99.67% |      374707      0.26%     99.93% |       40669      0.03%     99.95% |       66307      0.05%    100.00% |        1428      0.00%    100.00% |         204      0.00%    100.00% |           0      0.00%    100.00% |           0      0.00%    100.00% |           0      0.00%    100.00% |           0      0.00%    100.00% (Unspecified)
system.caches.m_latencyHistSeqr::total      145937611                       (Unspecified)
system.caches.m_hitLatencyHistSeqr::bucket_size          256                       (Unspecified)
system.caches.m_hitLatencyHistSeqr::max_bucket         2559                       (Unspecified)
system.caches.m_hitLatencyHistSeqr::samples    142826887                       (Unspecified)
system.caches.m_hitLatencyHistSeqr::mean     1.000381                       (Unspecified)
system.caches.m_hitLatencyHistSeqr::gmean     1.000032                       (Unspecified)
system.caches.m_hitLatencyHistSeqr::stdev     0.438817                       (Unspecified)
system.caches.m_hitLatencyHistSeqr       |   142826812    100.00%    100.00% |          43      0.00%    100.00% |          24      0.00%    100.00% |           3      0.00%    100.00% |           2      0.00%    100.00% |           3      0.00%    100.00% |           0      0.00%    100.00% |           0      0.00%    100.00% |           0      0.00%    100.00% |           0      0.00%    100.00% (Unspecified)
system.caches.m_hitLatencyHistSeqr::total    142826887                       (Unspecified)
system.caches.m_missLatencyHistSeqr::bucket_size          512                       (Unspecified)
system.caches.m_missLatencyHistSeqr::max_bucket         5119                       (Unspecified)
system.caches.m_missLatencyHistSeqr::samples      3110724                       (Unspecified)
system.caches.m_missLatencyHistSeqr::mean   496.969401                       (Unspecified)
system.caches.m_missLatencyHistSeqr::gmean   444.909860                       (Unspecified)
system.caches.m_missLatencyHistSeqr::stdev   237.497180                       (Unspecified)
system.caches.m_missLatencyHistSeqr      |     2627441     84.46%     84.46% |      374680     12.04%     96.51% |       40664      1.31%     97.82% |       66307      2.13%     99.95% |        1428      0.05%     99.99% |         204      0.01%    100.00% |           0      0.00%    100.00% |           0      0.00%    100.00% |           0      0.00%    100.00% |           0      0.00%    100.00% (Unspecified)
system.caches.m_missLatencyHistSeqr::total      3110724                       (Unspecified)
system.caches.delayVCHist.vnet_0::bucket_size            8                       # delay histogram for vnet_0 (Unspecified)
system.caches.delayVCHist.vnet_0::max_bucket           79                       # delay histogram for vnet_0 (Unspecified)
system.caches.delayVCHist.vnet_0::samples      9206890                       # delay histogram for vnet_0 (Unspecified)
system.caches.delayVCHist.vnet_0::mean       0.019540                       # delay histogram for vnet_0 (Unspecified)
system.caches.delayVCHist.vnet_0::stdev      0.454430                       # delay histogram for vnet_0 (Unspecified)
system.caches.delayVCHist.vnet_0         |     9188157     99.80%     99.80% |       18383      0.20%    100.00% |          91      0.00%    100.00% |          52      0.00%    100.00% |          42      0.00%    100.00% |          33      0.00%    100.00% |          39      0.00%    100.00% |          56      0.00%    100.00% |          37      0.00%    100.00% |           0      0.00%    100.00% # delay histogram for vnet_0 (Unspecified)
system.caches.delayVCHist.vnet_0::total       9206890                       # delay histogram for vnet_0 (Unspecified)
system.caches.delayVCHist.vnet_1::bucket_size            8                       # delay histogram for vnet_1 (Unspecified)
system.caches.delayVCHist.vnet_1::max_bucket           79                       # delay histogram for vnet_1 (Unspecified)
system.caches.delayVCHist.vnet_1::samples     12296388                       # delay histogram for vnet_1 (Unspecified)
system.caches.delayVCHist.vnet_1::mean       0.020393                       # delay histogram for vnet_1 (Unspecified)
system.caches.delayVCHist.vnet_1::stdev      0.441222                       # delay histogram for vnet_1 (Unspecified)
system.caches.delayVCHist.vnet_1         |    12287835     99.93%     99.93% |        6220      0.05%     99.98% |        1631      0.01%     99.99% |         466      0.00%    100.00% |         196      0.00%    100.00% |          37      0.00%    100.00% |           3      0.00%    100.00% |           0      0.00%    100.00% |           0      0.00%    100.00% |           0      0.00%    100.00% # delay histogram for vnet_1 (Unspecified)
system.caches.delayVCHist.vnet_1::total      12296388                       # delay histogram for vnet_1 (Unspecified)
system.caches.delayVCHist.vnet_2::bucket_size            1                       # delay histogram for vnet_2 (Unspecified)
system.caches.delayVCHist.vnet_2::max_bucket            9                       # delay histogram for vnet_2 (Unspecified)
system.caches.delayVCHist.vnet_2::samples        54581                       # delay histogram for vnet_2 (Unspecified)
system.caches.delayVCHist.vnet_2::mean       0.000220                       # delay histogram for vnet_2 (Unspecified)
system.caches.delayVCHist.vnet_2::stdev      0.020968                       # delay histogram for vnet_2 (Unspecified)
system.caches.delayVCHist.vnet_2         |       54575     99.99%     99.99% |           0      0.00%     99.99% |           6      0.01%    100.00% |           0      0.00%    100.00% |           0      0.00%    100.00% |           0      0.00%    100.00% |           0      0.00%    100.00% |           0      0.00%    100.00% |           0      0.00%    100.00% |           0      0.00%    100.00% # delay histogram for vnet_2 (Unspecified)
system.caches.delayVCHist.vnet_2::total         54581                       # delay histogram for vnet_2 (Unspecified)
system.caches.L1Cache_Controller.Load    |     6099275     12.51%     12.51% |     6093771     12.50%     25.01% |     6089808     12.49%     37.50% |     6093245     12.50%     50.00% |     6093085     12.50%     62.50% |     6093216     12.50%     75.00% |     6093739     12.50%     87.50% |     6096236     12.50%    100.00% (Unspecified)
system.caches.L1Cache_Controller.Load::total     48752375                       (Unspecified)
system.caches.L1Cache_Controller.Ifetch  |       24650     15.55%     15.55% |       19160     12.08%     27.63% |       19015     11.99%     39.62% |       19816     12.50%     52.12% |       19208     12.11%     64.23% |       19203     12.11%     76.34% |       18969     11.96%     88.30% |       18547     11.70%    100.00% (Unspecified)
system.caches.L1Cache_Controller.Ifetch::total       158568                       (Unspecified)
system.caches.L1Cache_Controller.Store   |    12130444     12.50%     12.50% |    12128472     12.50%     25.00% |    12121788     12.49%     37.50% |    12126050     12.50%     49.99% |    12126926     12.50%     62.49% |    12128178     12.50%     74.99% |    12130516     12.50%     87.49% |    12134304     12.51%    100.00% (Unspecified)
system.caches.L1Cache_Controller.Store::total     97026678                       (Unspecified)
system.caches.L1Cache_Controller.Inv     |        5613     10.33%     10.33% |        7157     13.18%     23.51% |        6592     12.14%     35.65% |        6060     11.16%     46.80% |        6799     12.52%     59.32% |        7042     12.96%     72.29% |        8483     15.62%     87.90% |        6570     12.10%    100.00% (Unspecified)
system.caches.L1Cache_Controller.Inv::total        54316                       (Unspecified)
system.caches.L1Cache_Controller.L1_Replacement |      385821     12.55%     12.55% |      384221     12.50%     25.05% |      383528     12.48%     37.52% |      384137     12.49%     50.02% |      384013     12.49%     62.51% |      384022     12.49%     75.00% |      384205     12.50%     87.50% |      384397     12.50%    100.00% (Unspecified)
system.caches.L1Cache_Controller.L1_Replacement::total      3074344                       (Unspecified)
system.caches.L1Cache_Controller.Fwd_GETS |         207     78.11%     78.11% |          18      6.79%     84.91% |           8      3.02%     87.92% |           1      0.38%     88.30% |           0      0.00%     88.30% |           5      1.89%     90.19% |           7      2.64%     92.83% |          19      7.17%    100.00% (Unspecified)
system.caches.L1Cache_Controller.Fwd_GETS::total          265                       (Unspecified)
system.caches.L1Cache_Controller.Data    |         125    100.00%    100.00% |           0      0.00%    100.00% |           0      0.00%    100.00% |           0      0.00%    100.00% |           0      0.00%    100.00% |           0      0.00%    100.00% |           0      0.00%    100.00% |           0      0.00%    100.00% (Unspecified)
system.caches.L1Cache_Controller.Data::total          125                       (Unspecified)
system.caches.L1Cache_Controller.Data_Exclusive |      380648     12.51%     12.51% |      380503     12.50%     25.01% |      380130     12.49%     37.50% |      380468     12.50%     50.00% |      380481     12.50%     62.50% |      380365     12.50%     74.99% |      380474     12.50%     87.49% |      380665     12.51%    100.00% (Unspecified)
system.caches.L1Cache_Controller.Data_Exclusive::total      3043734                       (Unspecified)
system.caches.L1Cache_Controller.DataS_fromL1 |           4      1.51%      1.51% |           8      3.02%      4.53% |           1      0.38%      4.91% |          10      3.77%      8.68% |           4      1.51%     10.19% |         196     73.96%     84.15% |          23      8.68%     92.83% |          19      7.17%    100.00% (Unspecified)
system.caches.L1Cache_Controller.DataS_fromL1::total          265                       (Unspecified)
system.caches.L1Cache_Controller.Data_all_Acks |        9923     14.91%     14.91% |        8195     12.32%     27.23% |        8006     12.03%     39.26% |        8128     12.22%     51.48% |        8001     12.03%     63.50% |        7978     11.99%     75.49% |        8212     12.34%     87.84% |        8093     12.16%    100.00% (Unspecified)
system.caches.L1Cache_Controller.Data_all_Acks::total        66536                       (Unspecified)
system.caches.L1Cache_Controller.Ack     |        1184    100.00%    100.00% |           0      0.00%    100.00% |           0      0.00%    100.00% |           0      0.00%    100.00% |           0      0.00%    100.00% |           0      0.00%    100.00% |           0      0.00%    100.00% |           0      0.00%    100.00% (Unspecified)
system.caches.L1Cache_Controller.Ack::total         1184                       (Unspecified)
system.caches.L1Cache_Controller.Ack_all |         189    100.00%    100.00% |           0      0.00%    100.00% |           0      0.00%    100.00% |           0      0.00%    100.00% |           0      0.00%    100.00% |           0      0.00%    100.00% |           0      0.00%    100.00% |           0      0.00%    100.00% (Unspecified)
system.caches.L1Cache_Controller.Ack_all::total          189                       (Unspecified)
system.caches.L1Cache_Controller.WB_Ack  |      381398     12.58%     12.58% |      378583     12.48%     25.06% |      378663     12.49%     37.55% |      379688     12.52%     50.07% |      378946     12.50%     62.57% |      378586     12.48%     75.05% |      377236     12.44%     87.49% |      379326     12.51%    100.00% (Unspecified)
system.caches.L1Cache_Controller.WB_Ack::total      3032426                       (Unspecified)
system.caches.L1Cache_Controller.NP.Load |      383077     12.51%     12.51% |      382933     12.50%     25.01% |      382460     12.49%     37.50% |      382823     12.50%     50.00% |      382695     12.50%     62.49% |      382696     12.50%     74.99% |      382929     12.50%     87.49% |      383090     12.51%    100.00% (Unspecified)
system.caches.L1Cache_Controller.NP.Load::total      3062703                       (Unspecified)
system.caches.L1Cache_Controller.NP.Ifetch |        1388     23.28%     23.28% |         670     11.24%     34.51% |         644     10.80%     45.31% |         658     11.03%     56.35% |         649     10.88%     67.23% |         654     10.97%     78.20% |         654     10.97%     89.17% |         646     10.83%    100.00% (Unspecified)
system.caches.L1Cache_Controller.NP.Ifetch::total         5963                       (Unspecified)
system.caches.L1Cache_Controller.NP.Store |        1514     19.98%     19.98% |         901     11.89%     31.88% |         645      8.51%     40.39% |         907     11.97%     52.36% |         912     12.04%     64.40% |         898     11.85%     76.25% |         890     11.75%     88.00% |         909     12.00%    100.00% (Unspecified)
system.caches.L1Cache_Controller.NP.Store::total         7576                       (Unspecified)
system.caches.L1Cache_Controller.NP.Inv  |          48      5.64%      5.64% |          42      4.94%     10.58% |         124     14.57%     25.15% |         191     22.44%     47.59% |         188     22.09%     69.68% |         188     22.09%     91.77% |          38      4.47%     96.24% |          32      3.76%    100.00% (Unspecified)
system.caches.L1Cache_Controller.NP.Inv::total          851                       (Unspecified)
system.caches.L1Cache_Controller.I.Load  |         111      7.64%      7.64% |         197     13.56%     21.20% |         212     14.59%     35.79% |         165     11.36%     47.14% |         191     13.15%     60.29% |         246     16.93%     77.22% |         188     12.94%     90.16% |         143      9.84%    100.00% (Unspecified)
system.caches.L1Cache_Controller.I.Load::total         1453                       (Unspecified)
system.caches.L1Cache_Controller.I.Ifetch |        3178     15.22%     15.22% |        2494     11.95%     27.17% |        2542     12.18%     39.34% |        2539     12.16%     51.50% |        2540     12.17%     63.67% |        2541     12.17%     75.84% |        2537     12.15%     87.99% |        2507     12.01%    100.00% (Unspecified)
system.caches.L1Cache_Controller.I.Ifetch::total        20878                       (Unspecified)
system.caches.L1Cache_Controller.I.Store |        1433     11.85%     11.85% |        1511     12.49%     24.34% |        1635     13.52%     37.86% |        1515     12.53%     50.39% |        1500     12.40%     62.79% |        1505     12.44%     75.24% |        1512     12.50%     87.74% |        1483     12.26%    100.00% (Unspecified)
system.caches.L1Cache_Controller.I.Store::total        12094                       (Unspecified)
system.caches.L1Cache_Controller.I.L1_Replacement |         635      3.67%      3.67% |        2653     15.33%     19.00% |        1888     10.91%     29.91% |        1436      8.30%     38.21% |        2177     12.58%     50.79% |        2362     13.65%     64.44% |        3994     23.08%     87.52% |        2160     12.48%    100.00% (Unspecified)
system.caches.L1Cache_Controller.I.L1_Replacement::total        17305                       (Unspecified)
system.caches.L1Cache_Controller.S.Load  |        9970     10.93%     10.93% |       11261     12.34%     23.27% |       11668     12.79%     36.06% |       12096     13.26%     49.32% |       12238     13.41%     62.74% |       11669     12.79%     75.53% |       10836     11.88%     87.41% |       11489     12.59%    100.00% (Unspecified)
system.caches.L1Cache_Controller.S.Load::total        91227                       (Unspecified)
system.caches.L1Cache_Controller.S.Ifetch |       20084     15.25%     15.25% |       15996     12.14%     27.39% |       15829     12.02%     39.41% |       16619     12.62%     52.02% |       16019     12.16%     64.18% |       16008     12.15%     76.34% |       15778     11.98%     88.31% |       15394     11.69%    100.00% (Unspecified)
system.caches.L1Cache_Controller.S.Ifetch::total       131727                       (Unspecified)
system.caches.L1Cache_Controller.S.Store |          64    100.00%    100.00% |           0      0.00%    100.00% |           0      0.00%    100.00% |           0      0.00%    100.00% |           0      0.00%    100.00% |           0      0.00%    100.00% |           0      0.00%    100.00% |           0      0.00%    100.00% (Unspecified)
system.caches.L1Cache_Controller.S.Store::total           64                       (Unspecified)
system.caches.L1Cache_Controller.S.Inv   |        3273     14.56%     14.56% |        2816     12.53%     27.09% |        2728     12.14%     39.23% |        2674     11.90%     51.13% |        2673     11.89%     63.02% |        2670     11.88%     74.90% |        2826     12.57%     87.47% |        2815     12.53%    100.00% (Unspecified)
system.caches.L1Cache_Controller.S.Inv::total        22475                       (Unspecified)
system.caches.L1Cache_Controller.S.L1_Replacement |        3788     15.39%     15.39% |        2985     12.13%     27.52% |        2976     12.09%     39.61% |        3013     12.24%     51.85% |        2889     11.74%     63.59% |        3074     12.49%     76.08% |        2975     12.09%     88.17% |        2911     11.83%    100.00% (Unspecified)
system.caches.L1Cache_Controller.S.L1_Replacement::total        24611                       (Unspecified)
system.caches.L1Cache_Controller.E.Load  |     5683541     12.49%     12.49% |     5686974     12.50%     25.00% |     5683669     12.49%     37.49% |     5685740     12.50%     49.99% |     5686011     12.50%     62.49% |     5686464     12.50%     74.99% |     5687901     12.50%     87.49% |     5689465     12.51%    100.00% (Unspecified)
system.caches.L1Cache_Controller.E.Load::total     45489765                       (Unspecified)
system.caches.L1Cache_Controller.E.Store |         688     18.03%     18.03% |         464     12.16%     30.20% |         450     11.80%     41.99% |         457     11.98%     53.97% |         454     11.90%     65.87% |         393     10.30%     76.17% |         445     11.66%     87.84% |         464     12.16%    100.00% (Unspecified)
system.caches.L1Cache_Controller.E.Store::total         3815                       (Unspecified)
system.caches.L1Cache_Controller.E.Inv   |         316      1.84%      1.84% |        2653     15.45%     17.29% |        1950     11.36%     28.65% |        1544      8.99%     37.64% |        2279     13.27%     50.91% |        2449     14.26%     65.17% |        3933     22.90%     88.07% |        2048     11.93%    100.00% (Unspecified)
system.caches.L1Cache_Controller.E.Inv::total        17172                       (Unspecified)
system.caches.L1Cache_Controller.E.L1_Replacement |      371788     12.33%     12.33% |      377370     12.52%     24.85% |      377725     12.53%     37.38% |      378469     12.55%     49.93% |      377747     12.53%     62.46% |      377522     12.52%     74.98% |      376083     12.47%     87.46% |      378142     12.54%    100.00% (Unspecified)
system.caches.L1Cache_Controller.E.L1_Replacement::total      3014846                       (Unspecified)
system.caches.L1Cache_Controller.E.Fwd_GETS |          18     23.68%     23.68% |          18     23.68%     47.37% |           8     10.53%     57.89% |           1      1.32%     59.21% |           0      0.00%     59.21% |           5      6.58%     65.79% |           7      9.21%     75.00% |          19     25.00%    100.00% (Unspecified)
system.caches.L1Cache_Controller.E.Fwd_GETS::total           76                       (Unspecified)
system.caches.L1Cache_Controller.M.Load  |       22576     21.05%     21.05% |       12406     11.57%     32.62% |       11799     11.00%     43.63% |       12421     11.58%     55.21% |       11950     11.14%     66.36% |       12141     11.32%     77.68% |       11885     11.08%     88.76% |       12047     11.24%    100.00% (Unspecified)
system.caches.L1Cache_Controller.M.Load::total       107225                       (Unspecified)
system.caches.L1Cache_Controller.M.Store |    12126745     12.50%     12.50% |    12125596     12.50%     25.00% |    12119057     12.49%     37.50% |    12123171     12.50%     49.99% |    12124060     12.50%     62.49% |    12125382     12.50%     74.99% |    12127669     12.50%     87.49% |    12131448     12.51%    100.00% (Unspecified)
system.caches.L1Cache_Controller.M.Store::total     97003128                       (Unspecified)
system.caches.L1Cache_Controller.M.Inv   |        1976     14.31%     14.31% |        1644     11.91%     26.22% |        1788     12.95%     39.17% |        1651     11.96%     51.13% |        1657     12.00%     63.13% |        1733     12.55%     75.68% |        1686     12.21%     87.90% |        1671     12.10%    100.00% (Unspecified)
system.caches.L1Cache_Controller.M.Inv::total        13806                       (Unspecified)
system.caches.L1Cache_Controller.M.L1_Replacement |        9610     54.66%     54.66% |        1213      6.90%     61.56% |         938      5.34%     66.90% |        1219      6.93%     73.83% |        1199      6.82%     80.65% |        1064      6.05%     86.71% |        1153      6.56%     93.27% |        1184      6.73%    100.00% (Unspecified)
system.caches.L1Cache_Controller.M.L1_Replacement::total        17580                       (Unspecified)
system.caches.L1Cache_Controller.M.Fwd_GETS |         189    100.00%    100.00% |           0      0.00%    100.00% |           0      0.00%    100.00% |           0      0.00%    100.00% |           0      0.00%    100.00% |           0      0.00%    100.00% |           0      0.00%    100.00% |           0      0.00%    100.00% (Unspecified)
system.caches.L1Cache_Controller.M.Fwd_GETS::total          189                       (Unspecified)
system.caches.L1Cache_Controller.IS.Inv  |           0      0.00%      0.00% |           2     20.00%     20.00% |           2     20.00%     40.00% |           0      0.00%     40.00% |           2     20.00%     60.00% |           2     20.00%     80.00% |           0      0.00%     80.00% |           2     20.00%    100.00% (Unspecified)
system.caches.L1Cache_Controller.IS.Inv::total           10                       (Unspecified)
system.caches.L1Cache_Controller.IS.L1_Replacement |           0      0.00%      0.00% |           0      0.00%      0.00% |           1     50.00%     50.00% |           0      0.00%     50.00% |           1     50.00%    100.00% |           0      0.00%    100.00% |           0      0.00%    100.00% |           0      0.00%    100.00% (Unspecified)
system.caches.L1Cache_Controller.IS.L1_Replacement::total            2                       (Unspecified)
system.caches.L1Cache_Controller.IS.Data_Exclusive |      380648     12.51%     12.51% |      380503     12.50%     25.01% |      380130     12.49%     37.50% |      380468     12.50%     50.00% |      380481     12.50%     62.50% |      380365     12.50%     74.99% |      380474     12.50%     87.49% |      380665     12.51%    100.00% (Unspecified)
system.caches.L1Cache_Controller.IS.Data_Exclusive::total      3043734                       (Unspecified)
system.caches.L1Cache_Controller.IS.DataS_fromL1 |           4      1.51%      1.51% |           8      3.02%      4.53% |           1      0.38%      4.91% |          10      3.77%      8.68% |           4      1.51%     10.19% |         196     73.96%     84.15% |          23      8.68%     92.83% |          19      7.17%    100.00% (Unspecified)
system.caches.L1Cache_Controller.IS.DataS_fromL1::total          265                       (Unspecified)
system.caches.L1Cache_Controller.IS.Data_all_Acks |        7101     15.11%     15.11% |        5781     12.30%     27.42% |        5724     12.18%     39.60% |        5706     12.15%     51.75% |        5587     11.89%     63.64% |        5573     11.86%     75.50% |        5810     12.37%     87.87% |        5699     12.13%    100.00% (Unspecified)
system.caches.L1Cache_Controller.IS.Data_all_Acks::total        46981                       (Unspecified)
system.caches.L1Cache_Controller.IM.Data |         125    100.00%    100.00% |           0      0.00%    100.00% |           0      0.00%    100.00% |           0      0.00%    100.00% |           0      0.00%    100.00% |           0      0.00%    100.00% |           0      0.00%    100.00% |           0      0.00%    100.00% (Unspecified)
system.caches.L1Cache_Controller.IM.Data::total          125                       (Unspecified)
system.caches.L1Cache_Controller.IM.Data_all_Acks |        2822     14.44%     14.44% |        2412     12.34%     26.78% |        2280     11.67%     38.44% |        2422     12.39%     50.84% |        2412     12.34%     63.18% |        2403     12.29%     75.47% |        2402     12.29%     87.76% |        2392     12.24%    100.00% (Unspecified)
system.caches.L1Cache_Controller.IM.Data_all_Acks::total        19545                       (Unspecified)
system.caches.L1Cache_Controller.SM.Ack  |        1184    100.00%    100.00% |           0      0.00%    100.00% |           0      0.00%    100.00% |           0      0.00%    100.00% |           0      0.00%    100.00% |           0      0.00%    100.00% |           0      0.00%    100.00% |           0      0.00%    100.00% (Unspecified)
system.caches.L1Cache_Controller.SM.Ack::total         1184                       (Unspecified)
system.caches.L1Cache_Controller.SM.Ack_all |         189    100.00%    100.00% |           0      0.00%    100.00% |           0      0.00%    100.00% |           0      0.00%    100.00% |           0      0.00%    100.00% |           0      0.00%    100.00% |           0      0.00%    100.00% |           0      0.00%    100.00% (Unspecified)
system.caches.L1Cache_Controller.SM.Ack_all::total          189                       (Unspecified)
system.caches.L1Cache_Controller.IS_I.Data_all_Acks |           0      0.00%      0.00% |           2     20.00%     20.00% |           2     20.00%     40.00% |           0      0.00%     40.00% |           2     20.00%     60.00% |           2     20.00%     80.00% |           0      0.00%     80.00% |           2     20.00%    100.00% (Unspecified)
system.caches.L1Cache_Controller.IS_I.Data_all_Acks::total           10                       (Unspecified)
system.caches.L1Cache_Controller.M_I.Load |           0      0.00%      0.00% |           0      0.00%      0.00% |           0      0.00%      0.00% |           0      0.00%      0.00% |           0      0.00%      0.00% |           0      0.00%      0.00% |           0      0.00%      0.00% |           2    100.00%    100.00% (Unspecified)
system.caches.L1Cache_Controller.M_I.Load::total            2                       (Unspecified)
system.caches.L1Cache_Controller.M_I.Store |           0      0.00%      0.00% |           0      0.00%      0.00% |           1    100.00%    100.00% |           0      0.00%    100.00% |           0      0.00%    100.00% |           0      0.00%    100.00% |           0      0.00%    100.00% |           0      0.00%    100.00% (Unspecified)
system.caches.L1Cache_Controller.M_I.Store::total            1                       (Unspecified)
system.caches.L1Cache_Controller.M_I.Inv |           0      0.00%      0.00% |           0      0.00%      0.00% |           0      0.00%      0.00% |           0      0.00%      0.00% |           0      0.00%      0.00% |           0      0.00%      0.00% |           0      0.00%      0.00% |           2    100.00%    100.00% (Unspecified)
system.caches.L1Cache_Controller.M_I.Inv::total            2                       (Unspecified)
system.caches.L1Cache_Controller.M_I.WB_Ack |      381398     12.58%     12.58% |      378583     12.48%     25.06% |      378663     12.49%     37.55% |      379688     12.52%     50.07% |      378946     12.50%     62.57% |      378586     12.48%     75.05% |      377236     12.44%     87.49% |      379324     12.51%    100.00% (Unspecified)
system.caches.L1Cache_Controller.M_I.WB_Ack::total      3032424                       (Unspecified)
system.caches.L1Cache_Controller.SINK_WB_ACK.WB_Ack |           0      0.00%      0.00% |           0      0.00%      0.00% |           0      0.00%      0.00% |           0      0.00%      0.00% |           0      0.00%      0.00% |           0      0.00%      0.00% |           0      0.00%      0.00% |           2    100.00%    100.00% (Unspecified)
system.caches.L1Cache_Controller.SINK_WB_ACK.WB_Ack::total            2                       (Unspecified)
system.caches.Directory_Controller.Fetch |        3435      0.11%      0.11% |     3045897     99.89%    100.00% (Unspecified)
system.caches.Directory_Controller.Fetch::total      3049332                       (Unspecified)
system.caches.Directory_Controller.Data  |          94      0.12%      0.12% |       81135     99.88%    100.00% (Unspecified)
system.caches.Directory_Controller.Data::total        81229                       (Unspecified)
system.caches.Directory_Controller.Memory_Data |        3435      0.11%      0.11% |     3045890     99.89%    100.00% (Unspecified)
system.caches.Directory_Controller.Memory_Data::total      3049325                       (Unspecified)
system.caches.Directory_Controller.Memory_Ack |          94      0.12%      0.12% |       81135     99.88%    100.00% (Unspecified)
system.caches.Directory_Controller.Memory_Ack::total        81229                       (Unspecified)
system.caches.Directory_Controller.CleanReplacement |        3304      0.11%      0.11% |     2964799     99.89%    100.00% (Unspecified)
system.caches.Directory_Controller.CleanReplacement::total      2968103                       (Unspecified)
system.caches.Directory_Controller.I.Fetch |        3435      0.11%      0.11% |     3045897     99.89%    100.00% (Unspecified)
system.caches.Directory_Controller.I.Fetch::total      3049332                       (Unspecified)
system.caches.Directory_Controller.M.Data |          94      0.12%      0.12% |       81135     99.88%    100.00% (Unspecified)
system.caches.Directory_Controller.M.Data::total        81229                       (Unspecified)
system.caches.Directory_Controller.M.CleanReplacement |        3304      0.11%      0.11% |     2964799     99.89%    100.00% (Unspecified)
system.caches.Directory_Controller.M.CleanReplacement::total      2968103                       (Unspecified)
system.caches.Directory_Controller.IM.Memory_Data |        3435      0.11%      0.11% |     3045890     99.89%    100.00% (Unspecified)
system.caches.Directory_Controller.IM.Memory_Data::total      3049325                       (Unspecified)
system.caches.Directory_Controller.MI.Memory_Ack |          94      0.12%      0.12% |       81135     99.88%    100.00% (Unspecified)
system.caches.Directory_Controller.MI.Memory_Ack::total        81229                       (Unspecified)
system.caches.L2Cache_Controller.L1_GET_INSTR |        3094     11.53%     11.53% |        4122     15.36%     26.88% |        2839     10.58%     37.46% |        2260      8.42%     45.88% |        3046     11.35%     57.23% |        3880     14.45%     71.68% |        3685     13.73%     85.41% |        3916     14.59%    100.00% (Unspecified)
system.caches.L2Cache_Controller.L1_GET_INSTR::total        26842                       (Unspecified)
system.caches.L2Cache_Controller.L1_GETS |      386148     12.60%     12.60% |      383678     12.52%     25.12% |      383219     12.51%     37.63% |      382235     12.47%     50.10% |      382118     12.47%     62.57% |      381801     12.46%     75.03% |      381864     12.46%     87.50% |      383164     12.50%    100.00% (Unspecified)
system.caches.L2Cache_Controller.L1_GETS::total      3064227                       (Unspecified)
system.caches.L2Cache_Controller.L1_GETX |        2928     14.63%     14.63% |        2469     12.34%     26.98% |        2024     10.12%     37.09% |        2194     10.97%     48.06% |        2082     10.41%     58.46% |        3091     15.45%     73.91% |        2539     12.69%     86.60% |        2680     13.40%    100.00% (Unspecified)
system.caches.L2Cache_Controller.L1_GETX::total        20007                       (Unspecified)
system.caches.L2Cache_Controller.L1_UPGRADE |           3      4.55%      4.55% |          46     69.70%     74.24% |           0      0.00%     74.24% |           0      0.00%     74.24% |           0      0.00%     74.24% |           0      0.00%     74.24% |          17     25.76%    100.00% |           0      0.00%    100.00% (Unspecified)
system.caches.L2Cache_Controller.L1_UPGRADE::total           66                       (Unspecified)
system.caches.L2Cache_Controller.L1_PUTX |      379423     12.51%     12.51% |      379123     12.50%     25.01% |      378141     12.47%     37.48% |      378940     12.50%     49.98% |      378778     12.49%     62.47% |      379620     12.52%     74.99% |      379210     12.51%     87.50% |      379189     12.50%    100.00% (Unspecified)
system.caches.L2Cache_Controller.L1_PUTX::total      3032424                       (Unspecified)
system.caches.L2Cache_Controller.L1_PUTX_old |           2     50.00%     50.00% |           0      0.00%     50.00% |           0      0.00%     50.00% |           2     50.00%    100.00% |           0      0.00%    100.00% |           0      0.00%    100.00% |           0      0.00%    100.00% |           0      0.00%    100.00% (Unspecified)
system.caches.L2Cache_Controller.L1_PUTX_old::total            4                       (Unspecified)
system.caches.L2Cache_Controller.L2_Replacement |        8623     12.59%     12.59% |        8509     12.42%     25.01% |        8473     12.37%     37.39% |        8558     12.50%     49.88% |        8475     12.37%     62.25% |        8665     12.65%     74.91% |        8552     12.49%     87.39% |        8635     12.61%    100.00% (Unspecified)
system.caches.L2Cache_Controller.L2_Replacement::total        68490                       (Unspecified)
system.caches.L2Cache_Controller.L2_Replacement_clean |      372783     12.51%     12.51% |      372805     12.51%     25.01% |      372441     12.49%     37.51% |      372551     12.50%     50.01% |      372558     12.50%     62.50% |      372561     12.50%     75.00% |      372467     12.50%     87.50% |      372676     12.50%    100.00% (Unspecified)
system.caches.L2Cache_Controller.L2_Replacement_clean::total      2980842                       (Unspecified)
system.caches.L2Cache_Controller.Mem_Data |      381404     12.51%     12.51% |      381313     12.50%     25.01% |      380914     12.49%     37.50% |      381109     12.50%     50.00% |      381031     12.50%     62.50% |      381226     12.50%     75.00% |      381017     12.50%     87.50% |      381311     12.50%    100.00% (Unspecified)
system.caches.L2Cache_Controller.Mem_Data::total      3049325                       (Unspecified)
system.caches.L2Cache_Controller.Mem_Ack |      381406     12.51%     12.51% |      381314     12.50%     25.01% |      380914     12.49%     37.50% |      381109     12.50%     50.00% |      381033     12.50%     62.50% |      381226     12.50%     75.00% |      381019     12.50%     87.50% |      381311     12.50%    100.00% (Unspecified)
system.caches.L2Cache_Controller.Mem_Ack::total      3049332                       (Unspecified)
system.caches.L2Cache_Controller.WB_Data |        1932     13.80%     13.80% |        1804     12.89%     26.70% |        1599     11.43%     38.12% |        1701     12.15%     50.28% |        1559     11.14%     61.41% |        1794     12.82%     74.23% |        1724     12.32%     86.55% |        1882     13.45%    100.00% (Unspecified)
system.caches.L2Cache_Controller.WB_Data::total        13995                       (Unspecified)
system.caches.L2Cache_Controller.WB_Data_clean |          15     19.23%     19.23% |          12     15.38%     34.62% |          10     12.82%     47.44% |          12     15.38%     62.82% |           8     10.26%     73.08% |           3      3.85%     76.92% |           8     10.26%     87.18% |          10     12.82%    100.00% (Unspecified)
system.caches.L2Cache_Controller.WB_Data_clean::total           78                       (Unspecified)
system.caches.L2Cache_Controller.Ack     |        2691     14.41%     14.41% |        2556     13.68%     28.09% |        2198     11.77%     39.86% |        1956     10.47%     50.33% |        2463     13.19%     63.52% |        2363     12.65%     76.17% |        2129     11.40%     87.57% |        2322     12.43%    100.00% (Unspecified)
system.caches.L2Cache_Controller.Ack::total        18678                       (Unspecified)
system.caches.L2Cache_Controller.Ack_all |        2768     13.49%     13.49% |        2839     13.83%     27.32% |        2461     11.99%     39.32% |        2446     11.92%     51.24% |        2527     12.31%     63.55% |        2472     12.05%     75.60% |        2423     11.81%     87.40% |        2585     12.60%    100.00% (Unspecified)
system.caches.L2Cache_Controller.Ack_all::total        20521                       (Unspecified)
system.caches.L2Cache_Controller.Unblock |         106     40.00%     40.00% |          58     21.89%     61.89% |          10      3.77%     65.66% |          11      4.15%     69.81% |           8      3.02%     72.83% |           3      1.13%     73.96% |          59     22.26%     96.23% |          10      3.77%    100.00% (Unspecified)
system.caches.L2Cache_Controller.Unblock::total          265                       (Unspecified)
system.caches.L2Cache_Controller.Exclusive_Unblock |      383602     12.52%     12.52% |      383281     12.51%     25.03% |      381787     12.46%     37.50% |      382717     12.49%     49.99% |      382427     12.48%     62.47% |      383466     12.52%     74.99% |      382994     12.50%     87.49% |      383194     12.51%    100.00% (Unspecified)
system.caches.L2Cache_Controller.Exclusive_Unblock::total      3063468                       (Unspecified)
system.caches.L2Cache_Controller.NP.L1_GET_INSTR |         473     14.39%     14.39% |         457     13.90%     28.29% |         391     11.90%     40.19% |         355     10.80%     50.99% |         418     12.72%     63.71% |         404     12.29%     76.00% |         346     10.53%     86.52% |         443     13.48%    100.00% (Unspecified)
system.caches.L2Cache_Controller.NP.L1_GET_INSTR::total         3287                       (Unspecified)
system.caches.L2Cache_Controller.NP.L1_GETS |      379159     12.50%     12.50% |      379128     12.50%     25.00% |      378969     12.50%     37.50% |      379144     12.50%     50.00% |      379086     12.50%     62.50% |      379097     12.50%     75.00% |      379016     12.50%     87.50% |      379120     12.50%    100.00% (Unspecified)
system.caches.L2Cache_Controller.NP.L1_GETS::total      3032719                       (Unspecified)
system.caches.L2Cache_Controller.NP.L1_GETX |        1774     13.31%     13.31% |        1729     12.97%     26.29% |        1554     11.66%     37.95% |        1610     12.08%     50.03% |        1529     11.47%     61.50% |        1725     12.94%     74.45% |        1657     12.43%     86.88% |        1748     13.12%    100.00% (Unspecified)
system.caches.L2Cache_Controller.NP.L1_GETX::total        13326                       (Unspecified)
system.caches.L2Cache_Controller.NP.L1_PUTX_old |           1     50.00%     50.00% |           0      0.00%     50.00% |           0      0.00%     50.00% |           1     50.00%    100.00% |           0      0.00%    100.00% |           0      0.00%    100.00% |           0      0.00%    100.00% |           0      0.00%    100.00% (Unspecified)
system.caches.L2Cache_Controller.NP.L1_PUTX_old::total            2                       (Unspecified)
system.caches.L2Cache_Controller.SS.L1_GET_INSTR |        2601     11.12%     11.12% |        3650     15.60%     26.71% |        2431     10.39%     37.10% |        1885      8.06%     45.16% |        2610     11.15%     56.31% |        3461     14.79%     71.10% |        3319     14.18%     85.29% |        3443     14.71%    100.00% (Unspecified)
system.caches.L2Cache_Controller.SS.L1_GET_INSTR::total        23400                       (Unspecified)
system.caches.L2Cache_Controller.SS.L1_GETS |        5294     26.38%     26.38% |        2805     13.98%     40.35% |        3396     16.92%     57.27% |        1652      8.23%     65.50% |        1708      8.51%     74.01% |        1384      6.90%     80.91% |        1254      6.25%     87.16% |        2578     12.84%    100.00% (Unspecified)
system.caches.L2Cache_Controller.SS.L1_GETS::total        20071                       (Unspecified)
system.caches.L2Cache_Controller.SS.L1_GETX |          89     71.20%     71.20% |           0      0.00%     71.20% |           0      0.00%     71.20% |           0      0.00%     71.20% |           0      0.00%     71.20% |           0      0.00%     71.20% |          36     28.80%    100.00% |           0      0.00%    100.00% (Unspecified)
system.caches.L2Cache_Controller.SS.L1_GETX::total          125                       (Unspecified)
system.caches.L2Cache_Controller.SS.L1_UPGRADE |           3      4.69%      4.69% |          46     71.88%     76.56% |           0      0.00%     76.56% |           0      0.00%     76.56% |           0      0.00%     76.56% |           0      0.00%     76.56% |          15     23.44%    100.00% |           0      0.00%    100.00% (Unspecified)
system.caches.L2Cache_Controller.SS.L1_UPGRADE::total           64                       (Unspecified)
system.caches.L2Cache_Controller.SS.L2_Replacement_clean |         489     14.60%     14.60% |         470     14.03%     28.64% |         399     11.91%     40.55% |         363     10.84%     51.39% |         422     12.60%     63.99% |         402     12.00%     75.99% |         351     10.48%     86.47% |         453     13.53%    100.00% (Unspecified)
system.caches.L2Cache_Controller.SS.L2_Replacement_clean::total         3349                       (Unspecified)
system.caches.L2Cache_Controller.M.L1_GET_INSTR |           0      0.00%      0.00% |           2     25.00%     25.00% |           1     12.50%     37.50% |           0      0.00%     37.50% |           0      0.00%     37.50% |           1     12.50%     50.00% |           2     25.00%     75.00% |           2     25.00%    100.00% (Unspecified)
system.caches.L2Cache_Controller.M.L1_GET_INSTR::total            8                       (Unspecified)
system.caches.L2Cache_Controller.M.L1_GETS |        1561     14.14%     14.14% |        1679     15.21%     29.34% |         841      7.62%     36.96% |        1417     12.83%     49.79% |        1314     11.90%     61.69% |        1314     11.90%     73.59% |        1475     13.36%     86.95% |        1441     13.05%    100.00% (Unspecified)
system.caches.L2Cache_Controller.M.L1_GETS::total        11042                       (Unspecified)
system.caches.L2Cache_Controller.M.L1_GETX |        1023     16.45%     16.45% |         703     11.30%     27.75% |         425      6.83%     34.59% |         549      8.83%     43.42% |         502      8.07%     51.49% |        1331     21.40%     72.89% |         797     12.82%     85.71% |         889     14.29%    100.00% (Unspecified)
system.caches.L2Cache_Controller.M.L1_GETX::total         6219                       (Unspecified)
system.caches.L2Cache_Controller.M.L2_Replacement |        8463     12.55%     12.55% |        8396     12.45%     25.01% |        8422     12.49%     37.50% |        8426     12.50%     50.00% |        8392     12.45%     62.44% |        8447     12.53%     74.97% |        8428     12.50%     87.47% |        8446     12.53%    100.00% (Unspecified)
system.caches.L2Cache_Controller.M.L2_Replacement::total        67420                       (Unspecified)
system.caches.L2Cache_Controller.M.L2_Replacement_clean |      368334     12.50%     12.50% |      368321     12.50%     24.99% |      368432     12.50%     37.49% |      368535     12.50%     49.99% |      368555     12.50%     62.50% |      368513     12.50%     75.00% |      368495     12.50%     87.50% |      368398     12.50%    100.00% (Unspecified)
system.caches.L2Cache_Controller.M.L2_Replacement_clean::total      2947583                       (Unspecified)
system.caches.L2Cache_Controller.MT.L1_GETS |         106     40.00%     40.00% |          58     21.89%     61.89% |          10      3.77%     65.66% |          11      4.15%     69.81% |           8      3.02%     72.83% |           3      1.13%     73.96% |          59     22.26%     96.23% |          10      3.77%    100.00% (Unspecified)
system.caches.L2Cache_Controller.MT.L1_GETS::total          265                       (Unspecified)
system.caches.L2Cache_Controller.MT.L1_PUTX |      379423     12.51%     12.51% |      379123     12.50%     25.01% |      378141     12.47%     37.48% |      378940     12.50%     49.98% |      378778     12.49%     62.47% |      379620     12.52%     74.99% |      379210     12.51%     87.50% |      379189     12.50%    100.00% (Unspecified)
system.caches.L2Cache_Controller.MT.L1_PUTX::total      3032424                       (Unspecified)
system.caches.L2Cache_Controller.MT.L2_Replacement |         160     14.95%     14.95% |         113     10.56%     25.51% |          51      4.77%     30.28% |         132     12.34%     42.62% |          83      7.76%     50.37% |         218     20.37%     70.75% |         124     11.59%     82.34% |         189     17.66%    100.00% (Unspecified)
system.caches.L2Cache_Controller.MT.L2_Replacement::total         1070                       (Unspecified)
system.caches.L2Cache_Controller.MT.L2_Replacement_clean |        3960     13.24%     13.24% |        4014     13.42%     26.66% |        3610     12.07%     38.73% |        3653     12.21%     50.94% |        3581     11.97%     62.92% |        3646     12.19%     75.11% |        3621     12.11%     87.21% |        3825     12.79%    100.00% (Unspecified)
system.caches.L2Cache_Controller.MT.L2_Replacement_clean::total        29910                       (Unspecified)
system.caches.L2Cache_Controller.M_I.L1_GET_INSTR |           0      0.00%      0.00% |           0      0.00%      0.00% |           0      0.00%      0.00% |           0      0.00%      0.00% |           0      0.00%      0.00% |           0      0.00%      0.00% |           0      0.00%      0.00% |           1    100.00%    100.00% (Unspecified)
system.caches.L2Cache_Controller.M_I.L1_GET_INSTR::total            1                       (Unspecified)
system.caches.L2Cache_Controller.M_I.L1_GETS |           0      0.00%      0.00% |           0      0.00%      0.00% |           0      0.00%      0.00% |           0      0.00%      0.00% |           0      0.00%      0.00% |           1    100.00%    100.00% |           0      0.00%    100.00% |           0      0.00%    100.00% (Unspecified)
system.caches.L2Cache_Controller.M_I.L1_GETS::total            1                       (Unspecified)
system.caches.L2Cache_Controller.M_I.L1_GETX |          42     12.46%     12.46% |          37     10.98%     23.44% |          45     13.35%     36.80% |          35     10.39%     47.18% |          51     15.13%     62.31% |          35     10.39%     72.70% |          49     14.54%     87.24% |          43     12.76%    100.00% (Unspecified)
system.caches.L2Cache_Controller.M_I.L1_GETX::total          337                       (Unspecified)
system.caches.L2Cache_Controller.M_I.Mem_Ack |      381406     12.51%     12.51% |      381314     12.50%     25.01% |      380914     12.49%     37.50% |      381109     12.50%     50.00% |      381033     12.50%     62.50% |      381226     12.50%     75.00% |      381019     12.50%     87.50% |      381311     12.50%    100.00% (Unspecified)
system.caches.L2Cache_Controller.M_I.Mem_Ack::total      3049332                       (Unspecified)
system.caches.L2Cache_Controller.MT_I.WB_Data |         159     14.90%     14.90% |         112     10.50%     25.40% |          51      4.78%     30.18% |         132     12.37%     42.55% |          82      7.69%     50.23% |         218     20.43%     70.67% |         124     11.62%     82.29% |         189     17.71%    100.00% (Unspecified)
system.caches.L2Cache_Controller.MT_I.WB_Data::total         1067                       (Unspecified)
system.caches.L2Cache_Controller.MT_I.Ack_all |           1     33.33%     33.33% |           1     33.33%     66.67% |           0      0.00%     66.67% |           0      0.00%     66.67% |           1     33.33%    100.00% |           0      0.00%    100.00% |           0      0.00%    100.00% |           0      0.00%    100.00% (Unspecified)
system.caches.L2Cache_Controller.MT_I.Ack_all::total            3                       (Unspecified)
system.caches.L2Cache_Controller.MCT_I.L1_PUTX_old |           1     50.00%     50.00% |           0      0.00%     50.00% |           0      0.00%     50.00% |           1     50.00%    100.00% |           0      0.00%    100.00% |           0      0.00%    100.00% |           0      0.00%    100.00% |           0      0.00%    100.00% (Unspecified)
system.caches.L2Cache_Controller.MCT_I.L1_PUTX_old::total            2                       (Unspecified)
system.caches.L2Cache_Controller.MCT_I.WB_Data |        1681     13.20%     13.20% |        1646     12.92%     26.12% |        1548     12.15%     38.27% |        1569     12.32%     50.58% |        1477     11.59%     62.18% |        1576     12.37%     74.55% |        1549     12.16%     86.71% |        1693     13.29%    100.00% (Unspecified)
system.caches.L2Cache_Controller.MCT_I.WB_Data::total        12739                       (Unspecified)
system.caches.L2Cache_Controller.MCT_I.WB_Data_clean |           1     50.00%     50.00% |           0      0.00%     50.00% |           0      0.00%     50.00% |           1     50.00%    100.00% |           0      0.00%    100.00% |           0      0.00%    100.00% |           0      0.00%    100.00% |           0      0.00%    100.00% (Unspecified)
system.caches.L2Cache_Controller.MCT_I.WB_Data_clean::total            2                       (Unspecified)
system.caches.L2Cache_Controller.MCT_I.Ack_all |        2278     13.27%     13.27% |        2368     13.79%     27.06% |        2062     12.01%     39.07% |        2083     12.13%     51.20% |        2104     12.25%     63.46% |        2070     12.06%     75.51% |        2072     12.07%     87.58% |        2132     12.42%    100.00% (Unspecified)
system.caches.L2Cache_Controller.MCT_I.Ack_all::total        17169                       (Unspecified)
system.caches.L2Cache_Controller.I_I.Ack |        2691     14.41%     14.41% |        2556     13.68%     28.09% |        2198     11.77%     39.86% |        1956     10.47%     50.33% |        2463     13.19%     63.52% |        2363     12.65%     76.17% |        2129     11.40%     87.57% |        2322     12.43%    100.00% (Unspecified)
system.caches.L2Cache_Controller.I_I.Ack::total        18678                       (Unspecified)
system.caches.L2Cache_Controller.I_I.Ack_all |         489     14.60%     14.60% |         470     14.03%     28.64% |         399     11.91%     40.55% |         363     10.84%     51.39% |         422     12.60%     63.99% |         402     12.00%     75.99% |         351     10.48%     86.47% |         453     13.53%    100.00% (Unspecified)
system.caches.L2Cache_Controller.I_I.Ack_all::total         3349                       (Unspecified)
system.caches.L2Cache_Controller.ISS.L1_GETS |           5     25.00%     25.00% |           3     15.00%     40.00% |           2     10.00%     50.00% |           3     15.00%     65.00% |           2     10.00%     75.00% |           1      5.00%     80.00% |           0      0.00%     80.00% |           4     20.00%    100.00% (Unspecified)
system.caches.L2Cache_Controller.ISS.L1_GETS::total           20                       (Unspecified)
system.caches.L2Cache_Controller.ISS.Mem_Data |      379152     12.50%     12.50% |      379124     12.50%     25.00% |      378967     12.50%     37.50% |      379141     12.50%     50.00% |      379082     12.50%     62.50% |      379096     12.50%     75.00% |      379014     12.50%     87.50% |      379116     12.50%    100.00% (Unspecified)
system.caches.L2Cache_Controller.ISS.Mem_Data::total      3032692                       (Unspecified)
system.caches.L2Cache_Controller.IS.L1_GET_INSTR |          20     13.70%     13.70% |          13      8.90%     22.60% |          16     10.96%     33.56% |          20     13.70%     47.26% |          18     12.33%     59.59% |          14      9.59%     69.18% |          18     12.33%     81.51% |          27     18.49%    100.00% (Unspecified)
system.caches.L2Cache_Controller.IS.L1_GET_INSTR::total          146                       (Unspecified)
system.caches.L2Cache_Controller.IS.L1_GETS |          23     58.97%     58.97% |           5     12.82%     71.79% |           1      2.56%     74.36% |           2      5.13%     79.49% |           0      0.00%     79.49% |           0      0.00%     79.49% |           0      0.00%     79.49% |           8     20.51%    100.00% (Unspecified)
system.caches.L2Cache_Controller.IS.L1_GETS::total           39                       (Unspecified)
system.caches.L2Cache_Controller.IS.Mem_Data |         478     14.45%     14.45% |         460     13.91%     28.36% |         393     11.88%     40.25% |         358     10.83%     51.07% |         420     12.70%     63.77% |         405     12.25%     76.02% |         346     10.46%     86.48% |         447     13.52%    100.00% (Unspecified)
system.caches.L2Cache_Controller.IS.Mem_Data::total         3307                       (Unspecified)
system.caches.L2Cache_Controller.IM.Mem_Data |        1774     13.31%     13.31% |        1729     12.97%     26.29% |        1554     11.66%     37.95% |        1610     12.08%     50.03% |        1529     11.47%     61.50% |        1725     12.94%     74.45% |        1657     12.43%     86.88% |        1748     13.12%    100.00% (Unspecified)
system.caches.L2Cache_Controller.IM.Mem_Data::total        13326                       (Unspecified)
system.caches.L2Cache_Controller.SS_MB.L1_GETS |           0      0.00%      0.00% |           0      0.00%      0.00% |           0      0.00%      0.00% |           0      0.00%      0.00% |           0      0.00%      0.00% |           0      0.00%      0.00% |          32    100.00%    100.00% |           0      0.00%    100.00% (Unspecified)
system.caches.L2Cache_Controller.SS_MB.L1_GETS::total           32                       (Unspecified)
system.caches.L2Cache_Controller.SS_MB.Exclusive_Unblock |          92     48.68%     48.68% |          46     24.34%     73.02% |           0      0.00%     73.02% |           0      0.00%     73.02% |           0      0.00%     73.02% |           0      0.00%     73.02% |          51     26.98%    100.00% |           0      0.00%    100.00% (Unspecified)
system.caches.L2Cache_Controller.SS_MB.Exclusive_Unblock::total          189                       (Unspecified)
system.caches.L2Cache_Controller.MT_MB.Exclusive_Unblock |      383510     12.52%     12.52% |      383235     12.51%     25.03% |      381787     12.46%     37.49% |      382717     12.49%     49.99% |      382427     12.48%     62.47% |      383466     12.52%     74.99% |      382943     12.50%     87.49% |      383194     12.51%    100.00% (Unspecified)
system.caches.L2Cache_Controller.MT_MB.Exclusive_Unblock::total      3063279                       (Unspecified)
system.caches.L2Cache_Controller.MT_IIB.L1_GETS |           0      0.00%      0.00% |           0      0.00%      0.00% |           0      0.00%      0.00% |           6     16.22%     16.22% |           0      0.00%     16.22% |           1      2.70%     18.92% |          28     75.68%     94.59% |           2      5.41%    100.00% (Unspecified)
system.caches.L2Cache_Controller.MT_IIB.L1_GETS::total           37                       (Unspecified)
system.caches.L2Cache_Controller.MT_IIB.WB_Data |          92     48.68%     48.68% |          46     24.34%     73.02% |           0      0.00%     73.02% |           0      0.00%     73.02% |           0      0.00%     73.02% |           0      0.00%     73.02% |          51     26.98%    100.00% |           0      0.00%    100.00% (Unspecified)
system.caches.L2Cache_Controller.MT_IIB.WB_Data::total          189                       (Unspecified)
system.caches.L2Cache_Controller.MT_IIB.WB_Data_clean |          14     18.42%     18.42% |          12     15.79%     34.21% |          10     13.16%     47.37% |          11     14.47%     61.84% |           8     10.53%     72.37% |           3      3.95%     76.32% |           8     10.53%     86.84% |          10     13.16%    100.00% (Unspecified)
system.caches.L2Cache_Controller.MT_IIB.WB_Data_clean::total           76                       (Unspecified)
system.caches.L2Cache_Controller.MT_SB.L1_GETS |           0      0.00%      0.00% |           0      0.00%      0.00% |           0      0.00%      0.00% |           0      0.00%      0.00% |           0      0.00%      0.00% |           0      0.00%      0.00% |           0      0.00%      0.00% |           1    100.00%    100.00% (Unspecified)
system.caches.L2Cache_Controller.MT_SB.L1_GETS::total            1                       (Unspecified)
system.caches.L2Cache_Controller.MT_SB.L1_UPGRADE |           0      0.00%      0.00% |           0      0.00%      0.00% |           0      0.00%      0.00% |           0      0.00%      0.00% |           0      0.00%      0.00% |           0      0.00%      0.00% |           2    100.00%    100.00% |           0      0.00%    100.00% (Unspecified)
system.caches.L2Cache_Controller.MT_SB.L1_UPGRADE::total            2                       (Unspecified)
system.caches.L2Cache_Controller.MT_SB.Unblock |         106     40.00%     40.00% |          58     21.89%     61.89% |          10      3.77%     65.66% |          11      4.15%     69.81% |           8      3.02%     72.83% |           3      1.13%     73.96% |          59     22.26%     96.23% |          10      3.77%    100.00% (Unspecified)
system.caches.L2Cache_Controller.MT_SB.Unblock::total          265                       (Unspecified)
system.caches.RequestType.LD.latency_hist_seqr::bucket_size          512                       (Unspecified)
system.caches.RequestType.LD.latency_hist_seqr::max_bucket         5119                       (Unspecified)
system.caches.RequestType.LD.latency_hist_seqr::samples     48752366                       (Unspecified)
system.caches.RequestType.LD.latency_hist_seqr::mean    32.564239                       (Unspecified)
system.caches.RequestType.LD.latency_hist_seqr::gmean     1.470762                       (Unspecified)
system.caches.RequestType.LD.latency_hist_seqr::stdev   135.144134                       (Unspecified)
system.caches.RequestType.LD.latency_hist_seqr |    48270974     99.01%     99.01% |      372978      0.77%     99.78% |       40561      0.08%     99.86% |       66227      0.14%    100.00% |        1423      0.00%    100.00% |         203      0.00%    100.00% |           0      0.00%    100.00% |           0      0.00%    100.00% |           0      0.00%    100.00% |           0      0.00%    100.00% (Unspecified)
system.caches.RequestType.LD.latency_hist_seqr::total     48752366                       (Unspecified)
system.caches.RequestType.LD.hit_latency_hist_seqr::bucket_size            1                       (Unspecified)
system.caches.RequestType.LD.hit_latency_hist_seqr::max_bucket            9                       (Unspecified)
system.caches.RequestType.LD.hit_latency_hist_seqr::samples     45688217                       (Unspecified)
system.caches.RequestType.LD.hit_latency_hist_seqr::mean     1.000005                       (Unspecified)
system.caches.RequestType.LD.hit_latency_hist_seqr::gmean     1.000004                       (Unspecified)
system.caches.RequestType.LD.hit_latency_hist_seqr::stdev     0.002282                       (Unspecified)
system.caches.RequestType.LD.hit_latency_hist_seqr |           0      0.00%      0.00% |    45687979    100.00%    100.00% |         238      0.00%    100.00% |           0      0.00%    100.00% |           0      0.00%    100.00% |           0      0.00%    100.00% |           0      0.00%    100.00% |           0      0.00%    100.00% |           0      0.00%    100.00% |           0      0.00%    100.00% (Unspecified)
system.caches.RequestType.LD.hit_latency_hist_seqr::total     45688217                       (Unspecified)
system.caches.RequestType.LD.miss_latency_hist_seqr::bucket_size          512                       (Unspecified)
system.caches.RequestType.LD.miss_latency_hist_seqr::max_bucket         5119                       (Unspecified)
system.caches.RequestType.LD.miss_latency_hist_seqr::samples      3064149                       (Unspecified)
system.caches.RequestType.LD.miss_latency_hist_seqr::mean   503.205044                       (Unspecified)
system.caches.RequestType.LD.miss_latency_hist_seqr::gmean   463.098879                       (Unspecified)
system.caches.RequestType.LD.miss_latency_hist_seqr::stdev   232.876633                       (Unspecified)
system.caches.RequestType.LD.miss_latency_hist_seqr |     2582757     84.29%     84.29% |      372978     12.17%     96.46% |       40561      1.32%     97.79% |       66227      2.16%     99.95% |        1423      0.05%     99.99% |         203      0.01%    100.00% |           0      0.00%    100.00% |           0      0.00%    100.00% |           0      0.00%    100.00% |           0      0.00%    100.00% (Unspecified)
system.caches.RequestType.LD.miss_latency_hist_seqr::total      3064149                       (Unspecified)
system.caches.RequestType.ST.latency_hist_seqr::bucket_size          256                       (Unspecified)
system.caches.RequestType.ST.latency_hist_seqr::max_bucket         2559                       (Unspecified)
system.caches.RequestType.ST.latency_hist_seqr::samples     48610877                       (Unspecified)
system.caches.RequestType.ST.latency_hist_seqr::mean     1.008097                       (Unspecified)
system.caches.RequestType.ST.latency_hist_seqr::gmean     1.000297                       (Unspecified)
system.caches.RequestType.ST.latency_hist_seqr::stdev     2.156033                       (Unspecified)
system.caches.RequestType.ST.latency_hist_seqr |    48610319    100.00%    100.00% |         237      0.00%    100.00% |         246      0.00%    100.00% |          48      0.00%    100.00% |           8      0.00%    100.00% |           6      0.00%    100.00% |          12      0.00%    100.00% |           1      0.00%    100.00% |           0      0.00%    100.00% |           0      0.00%    100.00% (Unspecified)
system.caches.RequestType.ST.latency_hist_seqr::total     48610877                       (Unspecified)
system.caches.RequestType.ST.hit_latency_hist_seqr::bucket_size          256                       (Unspecified)
system.caches.RequestType.ST.hit_latency_hist_seqr::max_bucket         2559                       (Unspecified)
system.caches.RequestType.ST.hit_latency_hist_seqr::samples     48606982                       (Unspecified)
system.caches.RequestType.ST.hit_latency_hist_seqr::mean     1.000326                       (Unspecified)
system.caches.RequestType.ST.hit_latency_hist_seqr::gmean     1.000034                       (Unspecified)
system.caches.RequestType.ST.hit_latency_hist_seqr::stdev     0.415439                       (Unspecified)
system.caches.RequestType.ST.hit_latency_hist_seqr |    48606960    100.00%    100.00% |          12      0.00%    100.00% |           7      0.00%    100.00% |           1      0.00%    100.00% |           1      0.00%    100.00% |           1      0.00%    100.00% |           0      0.00%    100.00% |           0      0.00%    100.00% |           0      0.00%    100.00% |           0      0.00%    100.00% (Unspecified)
system.caches.RequestType.ST.hit_latency_hist_seqr::total     48606982                       (Unspecified)
system.caches.RequestType.ST.miss_latency_hist_seqr::bucket_size          256                       (Unspecified)
system.caches.RequestType.ST.miss_latency_hist_seqr::max_bucket         2559                       (Unspecified)
system.caches.RequestType.ST.miss_latency_hist_seqr::samples         3895                       (Unspecified)
system.caches.RequestType.ST.miss_latency_hist_seqr::mean    97.986136                       (Unspecified)
system.caches.RequestType.ST.miss_latency_hist_seqr::gmean    26.442696                       (Unspecified)
system.caches.RequestType.ST.miss_latency_hist_seqr::stdev   215.562437                       (Unspecified)
system.caches.RequestType.ST.miss_latency_hist_seqr |        3359     86.24%     86.24% |         225      5.78%     92.02% |         239      6.14%     98.15% |          47      1.21%     99.36% |           7      0.18%     99.54% |           5      0.13%     99.67% |          12      0.31%     99.97% |           1      0.03%    100.00% |           0      0.00%    100.00% |           0      0.00%    100.00% (Unspecified)
system.caches.RequestType.ST.miss_latency_hist_seqr::total         3895                       (Unspecified)
system.caches.RequestType.IFETCH.latency_hist_seqr::bucket_size          256                       (Unspecified)
system.caches.RequestType.IFETCH.latency_hist_seqr::max_bucket         2559                       (Unspecified)
system.caches.RequestType.IFETCH.latency_hist_seqr::samples       158568                       (Unspecified)
system.caches.RequestType.IFETCH.latency_hist_seqr::mean     8.434066                       (Unspecified)
system.caches.RequestType.IFETCH.latency_hist_seqr::gmean     1.651879                       (Unspecified)
system.caches.RequestType.IFETCH.latency_hist_seqr::stdev    41.589474                       (Unspecified)
system.caches.RequestType.IFETCH.latency_hist_seqr |      157373     99.25%     99.25% |        1145      0.72%     99.97% |          21      0.01%     99.98% |           4      0.00%     99.98% |           3      0.00%     99.99% |          13      0.01%     99.99% |           9      0.01%    100.00% |           0      0.00%    100.00% |           0      0.00%    100.00% |           0      0.00%    100.00% (Unspecified)
system.caches.RequestType.IFETCH.latency_hist_seqr::total       158568                       (Unspecified)
system.caches.RequestType.IFETCH.hit_latency_hist_seqr::bucket_size            1                       (Unspecified)
system.caches.RequestType.IFETCH.hit_latency_hist_seqr::max_bucket            9                       (Unspecified)
system.caches.RequestType.IFETCH.hit_latency_hist_seqr::samples       131727                       (Unspecified)
system.caches.RequestType.IFETCH.hit_latency_hist_seqr::mean            1                       (Unspecified)
system.caches.RequestType.IFETCH.hit_latency_hist_seqr::gmean            1                       (Unspecified)
system.caches.RequestType.IFETCH.hit_latency_hist_seqr |           0      0.00%      0.00% |      131727    100.00%    100.00% |           0      0.00%    100.00% |           0      0.00%    100.00% |           0      0.00%    100.00% |           0      0.00%    100.00% |           0      0.00%    100.00% |           0      0.00%    100.00% |           0      0.00%    100.00% |           0      0.00%    100.00% (Unspecified)
system.caches.RequestType.IFETCH.hit_latency_hist_seqr::total       131727                       (Unspecified)
system.caches.RequestType.IFETCH.miss_latency_hist_seqr::bucket_size          256                       (Unspecified)
system.caches.RequestType.IFETCH.miss_latency_hist_seqr::max_bucket         2559                       (Unspecified)
system.caches.RequestType.IFETCH.miss_latency_hist_seqr::samples        26841                       (Unspecified)
system.caches.RequestType.IFETCH.miss_latency_hist_seqr::mean    44.918073                       (Unspecified)
system.caches.RequestType.IFETCH.miss_latency_hist_seqr::gmean    19.397514                       (Unspecified)
system.caches.RequestType.IFETCH.miss_latency_hist_seqr::stdev    92.824395                       (Unspecified)
system.caches.RequestType.IFETCH.miss_latency_hist_seqr |       25646     95.55%     95.55% |        1145      4.27%     99.81% |          21      0.08%     99.89% |           4      0.01%     99.91% |           3      0.01%     99.92% |          13      0.05%     99.97% |           9      0.03%    100.00% |           0      0.00%    100.00% |           0      0.00%    100.00% |           0      0.00%    100.00% (Unspecified)
system.caches.RequestType.IFETCH.miss_latency_hist_seqr::total        26841                       (Unspecified)
system.caches.RequestType.RMW_Read.latency_hist_seqr::bucket_size          512                       (Unspecified)
system.caches.RequestType.RMW_Read.latency_hist_seqr::max_bucket         5119                       (Unspecified)
system.caches.RequestType.RMW_Read.latency_hist_seqr::samples     48410476                       (Unspecified)
system.caches.RequestType.RMW_Read.latency_hist_seqr::mean     1.049814                       (Unspecified)
system.caches.RequestType.RMW_Read.latency_hist_seqr::gmean     1.001436                       (Unspecified)
system.caches.RequestType.RMW_Read.latency_hist_seqr::stdev     4.880184                       (Unspecified)
system.caches.RequestType.RMW_Read.latency_hist_seqr |    48408970    100.00%    100.00% |        1371      0.00%    100.00% |          72      0.00%    100.00% |          57      0.00%    100.00% |           5      0.00%    100.00% |           1      0.00%    100.00% |           0      0.00%    100.00% |           0      0.00%    100.00% |           0      0.00%    100.00% |           0      0.00%    100.00% (Unspecified)
system.caches.RequestType.RMW_Read.latency_hist_seqr::total     48410476                       (Unspecified)
system.caches.RequestType.RMW_Read.hit_latency_hist_seqr::bucket_size          256                       (Unspecified)
system.caches.RequestType.RMW_Read.hit_latency_hist_seqr::max_bucket         2559                       (Unspecified)
system.caches.RequestType.RMW_Read.hit_latency_hist_seqr::samples     48395292                       (Unspecified)
system.caches.RequestType.RMW_Read.hit_latency_hist_seqr::mean     1.000792                       (Unspecified)
system.caches.RequestType.RMW_Read.hit_latency_hist_seqr::gmean     1.000057                       (Unspecified)
system.caches.RequestType.RMW_Read.hit_latency_hist_seqr::stdev     0.628447                       (Unspecified)
system.caches.RequestType.RMW_Read.hit_latency_hist_seqr |    48395239    100.00%    100.00% |          31      0.00%    100.00% |          17      0.00%    100.00% |           2      0.00%    100.00% |           1      0.00%    100.00% |           2      0.00%    100.00% |           0      0.00%    100.00% |           0      0.00%    100.00% |           0      0.00%    100.00% |           0      0.00%    100.00% (Unspecified)
system.caches.RequestType.RMW_Read.hit_latency_hist_seqr::total     48395292                       (Unspecified)
system.caches.RequestType.RMW_Read.miss_latency_hist_seqr::bucket_size          512                       (Unspecified)
system.caches.RequestType.RMW_Read.miss_latency_hist_seqr::max_bucket         5119                       (Unspecified)
system.caches.RequestType.RMW_Read.miss_latency_hist_seqr::samples        15184                       (Unspecified)
system.caches.RequestType.RMW_Read.miss_latency_hist_seqr::mean   157.296694                       (Unspecified)
system.caches.RequestType.RMW_Read.miss_latency_hist_seqr::gmean    81.143344                       (Unspecified)
system.caches.RequestType.RMW_Read.miss_latency_hist_seqr::stdev   224.178272                       (Unspecified)
system.caches.RequestType.RMW_Read.miss_latency_hist_seqr |       13700     90.23%     90.23% |        1352      8.90%     99.13% |          69      0.45%     99.59% |          57      0.38%     99.96% |           5      0.03%     99.99% |           1      0.01%    100.00% |           0      0.00%    100.00% |           0      0.00%    100.00% |           0      0.00%    100.00% |           0      0.00%    100.00% (Unspecified)
system.caches.RequestType.RMW_Read.miss_latency_hist_seqr::total        15184                       (Unspecified)
system.caches.RequestType.Locked_RMW_Read.latency_hist_seqr::bucket_size          256                       (Unspecified)
system.caches.RequestType.Locked_RMW_Read.latency_hist_seqr::max_bucket         2559                       (Unspecified)
system.caches.RequestType.Locked_RMW_Read.latency_hist_seqr::samples         2662                       (Unspecified)
system.caches.RequestType.Locked_RMW_Read.latency_hist_seqr::mean    24.688956                       (Unspecified)
system.caches.RequestType.Locked_RMW_Read.latency_hist_seqr::gmean     2.230607                       (Unspecified)
system.caches.RequestType.Locked_RMW_Read.latency_hist_seqr::stdev   115.150162                       (Unspecified)
system.caches.RequestType.Locked_RMW_Read.latency_hist_seqr |        2570     96.54%     96.54% |          46      1.73%     98.27% |          36      1.35%     99.62% |           3      0.11%     99.74% |           2      0.08%     99.81% |           4      0.15%     99.96% |           1      0.04%    100.00% |           0      0.00%    100.00% |           0      0.00%    100.00% |           0      0.00%    100.00% (Unspecified)
system.caches.RequestType.Locked_RMW_Read.latency_hist_seqr::total         2662                       (Unspecified)
system.caches.RequestType.Locked_RMW_Read.hit_latency_hist_seqr::bucket_size            1                       (Unspecified)
system.caches.RequestType.Locked_RMW_Read.hit_latency_hist_seqr::max_bucket            9                       (Unspecified)
system.caches.RequestType.Locked_RMW_Read.hit_latency_hist_seqr::samples         2007                       (Unspecified)
system.caches.RequestType.Locked_RMW_Read.hit_latency_hist_seqr::mean            1                       (Unspecified)
system.caches.RequestType.Locked_RMW_Read.hit_latency_hist_seqr::gmean            1                       (Unspecified)
system.caches.RequestType.Locked_RMW_Read.hit_latency_hist_seqr |           0      0.00%      0.00% |        2007    100.00%    100.00% |           0      0.00%    100.00% |           0      0.00%    100.00% |           0      0.00%    100.00% |           0      0.00%    100.00% |           0      0.00%    100.00% |           0      0.00%    100.00% |           0      0.00%    100.00% |           0      0.00%    100.00% (Unspecified)
system.caches.RequestType.Locked_RMW_Read.hit_latency_hist_seqr::total         2007                       (Unspecified)
system.caches.RequestType.Locked_RMW_Read.miss_latency_hist_seqr::bucket_size          256                       (Unspecified)
[...]
system.o3Cpu7.fetch.nisnDist::total         228820870                       # Number of instructions fetched each cycle (Total) (Count)
system.o3Cpu7.fetch.branchRate               0.026623                       # Number of branch fetches per cycle (Ratio)
system.o3Cpu7.fetch.rate                     0.212458                       # Number of inst fetches per cycle ((Count/Cycle))
system.o3Cpu7.iew.idleCycles                        0                       # Number of cycles IEW is idle (Cycle)
system.o3Cpu7.iew.squashCycles                   1642                       # Number of cycles IEW is squashing (Cycle)
system.o3Cpu7.iew.blockCycles               183291523                       # Number of cycles IEW is blocking (Cycle)
system.o3Cpu7.iew.unblockCycles                394070                       # Number of cycles IEW is unblocking (Cycle)
system.o3Cpu7.iew.dispatchedInsts            85122605                       # Number of instructions dispatched to IQ (Count)
system.o3Cpu7.iew.dispSquashedInsts               370                       # Number of squashed instructions skipped by dispatch (Count)
system.o3Cpu7.iew.dispLoadInsts              12161809                       # Number of dispatched load instructions (Count)
system.o3Cpu7.iew.dispStoreInsts              6082208                       # Number of dispatched store instructions (Count)
system.o3Cpu7.iew.dispNonSpecInsts               1872                       # Number of dispatched non-speculative instructions (Count)
system.o3Cpu7.iew.iqFullEvents                    939                       # Number of times the IQ has become full, causing a stall (Count)
system.o3Cpu7.iew.lsqFullEvents                 13793                       # Number of times the LSQ has become full, causing a stall (Count)
system.o3Cpu7.iew.memOrderViolationEvents          769                       # Number of memory order violations (Count)
system.o3Cpu7.iew.predictedTakenIncorrect          451                       # Number of branches that were predicted taken incorrectly (Count)
system.o3Cpu7.iew.predictedNotTakenIncorrect          468                       # Number of branches that were predicted not taken incorrectly (Count)
system.o3Cpu7.iew.branchMispredicts               919                       # Number of branch mispredicts detected at execute (Count)
system.o3Cpu7.iew.instsToCommit              85106611                       # Cumulative count of insts sent to commit (Count)
system.o3Cpu7.iew.writebackCount             85106355                       # Cumulative count of insts written-back (Count)
system.o3Cpu7.iew.producerInst               64614944                       # Number of instructions producing a value (Count)
system.o3Cpu7.iew.consumerInst               99664932                       # Number of instructions consuming a value (Count)
system.o3Cpu7.iew.wbRate                     0.371762                       # Insts written-back per cycle ((Count/Cycle))
system.o3Cpu7.iew.wbFanout                   0.648322                       # Average fanout of values written-back ((Count/Count))
system.o3Cpu7.interrupts.clk_domain.clock         3200                       # Clock period in ticks (Tick)
system.o3Cpu7.lsq0.forwLoads                    14132                       # Number of loads that had data forwarded from stores (Count)
system.o3Cpu7.lsq0.squashedLoads                 6178                       # Number of loads squashed (Count)
system.o3Cpu7.lsq0.ignoredResponses                21                       # Number of memory responses ignored because the instruction is squashed (Count)
system.o3Cpu7.lsq0.memOrderViolation              769                       # Number of memory ordering violations (Count)
system.o3Cpu7.lsq0.squashedStores                2938                       # Number of stores squashed (Count)
system.o3Cpu7.lsq0.rescheduledLoads                21                       # Number of loads that were rescheduled (Count)
system.o3Cpu7.lsq0.blockedByCache                   7                       # Number of times an access to memory failed due to the cache being blocked (Count)
system.o3Cpu7.lsq0.loadToUse::samples        12155612                       # Distribution of cycle latency between the first time a load is issued and its completion (Unspecified)
system.o3Cpu7.lsq0.loadToUse::mean          18.854441                       # Distribution of cycle latency between the first time a load is issued and its completion (Unspecified)
system.o3Cpu7.lsq0.loadToUse::stdev         96.985842                       # Distribution of cycle latency between the first time a load is issued and its completion (Unspecified)
system.o3Cpu7.lsq0.loadToUse::0-9            11770569     96.83%     96.83% # Distribution of cycle latency between the first time a load is issued and its completion (Unspecified)
system.o3Cpu7.lsq0.loadToUse::10-19              2602      0.02%     96.85% # Distribution of cycle latency between the first time a load is issued and its completion (Unspecified)
system.o3Cpu7.lsq0.loadToUse::20-29               601      0.00%     96.86% # Distribution of cycle latency between the first time a load is issued and its completion (Unspecified)
system.o3Cpu7.lsq0.loadToUse::30-39               382      0.00%     96.86% # Distribution of cycle latency between the first time a load is issued and its completion (Unspecified)
system.o3Cpu7.lsq0.loadToUse::40-49               202      0.00%     96.86% # Distribution of cycle latency between the first time a load is issued and its completion (Unspecified)
system.o3Cpu7.lsq0.loadToUse::50-59                71      0.00%     96.86% # Distribution of cycle latency between the first time a load is issued and its completion (Unspecified)
system.o3Cpu7.lsq0.loadToUse::60-69                65      0.00%     96.86% # Distribution of cycle latency between the first time a load is issued and its completion (Unspecified)
system.o3Cpu7.lsq0.loadToUse::70-79              1125      0.01%     96.87% # Distribution of cycle latency between the first time a load is issued and its completion (Unspecified)
system.o3Cpu7.lsq0.loadToUse::80-89                54      0.00%     96.87% # Distribution of cycle latency between the first time a load is issued and its completion (Unspecified)
system.o3Cpu7.lsq0.loadToUse::90-99                14      0.00%     96.87% # Distribution of cycle latency between the first time a load is issued and its completion (Unspecified)
system.o3Cpu7.lsq0.loadToUse::100-109              12      0.00%     96.87% # Distribution of cycle latency between the first time a load is issued and its completion (Unspecified)
system.o3Cpu7.lsq0.loadToUse::110-119              16      0.00%     96.87% # Distribution of cycle latency between the first time a load is issued and its completion (Unspecified)
system.o3Cpu7.lsq0.loadToUse::120-129              25      0.00%     96.87% # Distribution of cycle latency between the first time a load is issued and its completion (Unspecified)
system.o3Cpu7.lsq0.loadToUse::130-139               5      0.00%     96.87% # Distribution of cycle latency between the first time a load is issued and its completion (Unspecified)
system.o3Cpu7.lsq0.loadToUse::140-149               5      0.00%     96.87% # Distribution of cycle latency between the first time a load is issued and its completion (Unspecified)
system.o3Cpu7.lsq0.loadToUse::150-159               2      0.00%     96.88% # Distribution of cycle latency between the first time a load is issued and its completion (Unspecified)
system.o3Cpu7.lsq0.loadToUse::160-169               1      0.00%     96.88% # Distribution of cycle latency between the first time a load is issued and its completion (Unspecified)
system.o3Cpu7.lsq0.loadToUse::190-199               1      0.00%     96.88% # Distribution of cycle latency between the first time a load is issued and its completion (Unspecified)
system.o3Cpu7.lsq0.loadToUse::200-209               7      0.00%     96.88% # Distribution of cycle latency between the first time a load is issued and its completion (Unspecified)
system.o3Cpu7.lsq0.loadToUse::210-219               6      0.00%     96.88% # Distribution of cycle latency between the first time a load is issued and its completion (Unspecified)
system.o3Cpu7.lsq0.loadToUse::220-229              12      0.00%     96.88% # Distribution of cycle latency between the first time a load is issued and its completion (Unspecified)
system.o3Cpu7.lsq0.loadToUse::230-239              14      0.00%     96.88% # Distribution of cycle latency between the first time a load is issued and its completion (Unspecified)
system.o3Cpu7.lsq0.loadToUse::240-249               3      0.00%     96.88% # Distribution of cycle latency between the first time a load is issued and its completion (Unspecified)
system.o3Cpu7.lsq0.loadToUse::250-259               1      0.00%     96.88% # Distribution of cycle latency between the first time a load is issued and its completion (Unspecified)
system.o3Cpu7.lsq0.loadToUse::260-269               4      0.00%     96.88% # Distribution of cycle latency between the first time a load is issued and its completion (Unspecified)
system.o3Cpu7.lsq0.loadToUse::270-279               4      0.00%     96.88% # Distribution of cycle latency between the first time a load is issued and its completion (Unspecified)
system.o3Cpu7.lsq0.loadToUse::280-289               3      0.00%     96.88% # Distribution of cycle latency between the first time a load is issued and its completion (Unspecified)
system.o3Cpu7.lsq0.loadToUse::290-299               5      0.00%     96.88% # Distribution of cycle latency between the first time a load is issued and its completion (Unspecified)
system.o3Cpu7.lsq0.loadToUse::overflows        379801      3.12%    100.00% # Distribution of cycle latency between the first time a load is issued and its completion (Unspecified)
system.o3Cpu7.lsq0.loadToUse::min_value             2                       # Distribution of cycle latency between the first time a load is issued and its completion (Unspecified)
system.o3Cpu7.lsq0.loadToUse::max_value          3572                       # Distribution of cycle latency between the first time a load is issued and its completion (Unspecified)
system.o3Cpu7.lsq0.loadToUse::total          12155612                       # Distribution of cycle latency between the first time a load is issued and its completion (Unspecified)
system.o3Cpu7.mmu.dtb.rdAccesses             12161463                       # TLB accesses on read requests (Count)
system.o3Cpu7.mmu.dtb.wrAccesses              6081823                       # TLB accesses on write requests (Count)
system.o3Cpu7.mmu.dtb.rdMisses                   1413                       # TLB misses on read requests (Count)
system.o3Cpu7.mmu.dtb.wrMisses                   1020                       # TLB misses on write requests (Count)
system.o3Cpu7.mmu.dtb.walker.power_state.pwrStateResidencyTicks::UNDEFINED  46795468800                       # Cumulative time (in ticks) in various power states (Tick)
system.o3Cpu7.mmu.itb.rdAccesses                    0                       # TLB accesses on read requests (Count)
system.o3Cpu7.mmu.itb.wrAccesses                18842                       # TLB accesses on write requests (Count)
system.o3Cpu7.mmu.itb.rdMisses                      0                       # TLB misses on read requests (Count)
system.o3Cpu7.mmu.itb.wrMisses                    119                       # TLB misses on write requests (Count)
system.o3Cpu7.mmu.itb.walker.power_state.pwrStateResidencyTicks::UNDEFINED  46795468800                       # Cumulative time (in ticks) in various power states (Tick)
system.o3Cpu7.power_state.pwrStateResidencyTicks::OFF  46795468800                       # Cumulative time (in ticks) in various power states (Tick)
system.o3Cpu7.rename.squashCycles                1642                       # Number of cycles rename is squashing (Cycle)
system.o3Cpu7.rename.idleCycles               6438628                       # Number of cycles rename is idle (Cycle)
system.o3Cpu7.rename.blockCycles            193652279                       # Number of cycles rename is blocking (Cycle)
system.o3Cpu7.rename.serializeStallCycles       118998                       # count of cycles rename stalled for serializing inst (Cycle)
system.o3Cpu7.rename.runCycles                8293280                       # Number of cycles rename is running (Cycle)
system.o3Cpu7.rename.unblockCycles           20316043                       # Number of cycles rename is unblocking (Cycle)
system.o3Cpu7.rename.renamedInsts            85126541                       # Number of instructions processed by rename (Count)
system.o3Cpu7.rename.ROBFullEvents               6395                       # Number of times rename has blocked due to ROB full (Count)
system.o3Cpu7.rename.IQFullEvents            19023398                       # Number of times rename has blocked due to IQ full (Count)
system.o3Cpu7.rename.LQFullEvents                5350                       # Number of times rename has blocked due to LQ full (Count)
system.o3Cpu7.rename.SQFullEvents               13635                       # Number of times rename has blocked due to SQ full (Count)
system.o3Cpu7.rename.renamedOperands        194384456                       # Number of destination operands rename has renamed (Count)
system.o3Cpu7.rename.lookups                322082399                       # Number of register rename lookups that rename has made (Count)
system.o3Cpu7.rename.intLookups             139773357                       # Number of integer rename lookups (Count)
system.o3Cpu7.rename.committedMaps          194313294                       # Number of HB maps that are committed (Count)
system.o3Cpu7.rename.undoneMaps                 70867                       # Number of HB maps that are undone due to squashing (Count)
system.o3Cpu7.rename.serializing                 1964                       # count of serializing insts renamed (Count)
system.o3Cpu7.rename.tempSerializing             2050                       # count of temporary serializing insts renamed (Count)
system.o3Cpu7.rename.skidInsts               39872585                       # count of insts added to the skid buffer (Count)
system.o3Cpu7.rob.reads                     307856025                       # The number of ROB reads (Count)
system.o3Cpu7.rob.writes                    170244277                       # The number of ROB writes (Count)
system.o3Cpu7.thread_0.numInsts              48594736                       # Number of Instructions committed (Count)
system.o3Cpu7.thread_0.numOps                85081327                       # Number of Ops committed (Count)
system.o3Cpu7.thread_0.numMemRefs                   0                       # Number of Memory References (Count)
system.pc.bad_addr.power_state.pwrStateResidencyTicks::UNDEFINED  46795468800                       # Cumulative time (in ticks) in various power states (Tick)
system.pc.com_1.power_state.pwrStateResidencyTicks::UNDEFINED  46795468800                       # Cumulative time (in ticks) in various power states (Tick)
system.pc.default_bus.power_state.pwrStateResidencyTicks::UNDEFINED  46795468800                       # Cumulative time (in ticks) in various power states (Tick)
system.pc.empty_isa.power_state.pwrStateResidencyTicks::UNDEFINED  46795468800                       # Cumulative time (in ticks) in various power states (Tick)
system.pc.fake_com_2.power_state.pwrStateResidencyTicks::UNDEFINED  46795468800                       # Cumulative time (in ticks) in various power states (Tick)
system.pc.fake_com_3.power_state.pwrStateResidencyTicks::UNDEFINED  46795468800                       # Cumulative time (in ticks) in various power states (Tick)
system.pc.fake_com_4.power_state.pwrStateResidencyTicks::UNDEFINED  46795468800                       # Cumulative time (in ticks) in various power states (Tick)
system.pc.fake_floppy.power_state.pwrStateResidencyTicks::UNDEFINED  46795468800                       # Cumulative time (in ticks) in various power states (Tick)
system.pc.pci_host.power_state.pwrStateResidencyTicks::UNDEFINED  46795468800                       # Cumulative time (in ticks) in various power states (Tick)
system.pc.south_bridge.cmos.power_state.pwrStateResidencyTicks::UNDEFINED  46795468800                       # Cumulative time (in ticks) in various power states (Tick)
system.pc.south_bridge.dma1.power_state.pwrStateResidencyTicks::UNDEFINED  46795468800                       # Cumulative time (in ticks) in various power states (Tick)
system.pc.south_bridge.ide.disks0.IdeDisk.dmaReadFullPages            0                       # Number of full page size DMA reads (not PRD). (Count)
system.pc.south_bridge.ide.disks0.IdeDisk.dmaReadBytes            0                       # Number of bytes transfered via DMA reads (not PRD). (Byte)
system.pc.south_bridge.ide.disks0.IdeDisk.dmaReadTxs            0                       # Number of DMA read transactions (not PRD). (Count)
system.pc.south_bridge.ide.disks0.IdeDisk.dmaWriteFullPages            0                       # Number of full page size DMA writes. (Count)
system.pc.south_bridge.ide.disks0.IdeDisk.dmaWriteBytes            0                       # Number of bytes transfered via DMA writes. (Byte)
system.pc.south_bridge.ide.disks0.IdeDisk.dmaWriteTxs            0                       # Number of DMA write transactions. (Count)
system.pc.south_bridge.ide.disks1.IdeDisk.dmaReadFullPages            0                       # Number of full page size DMA reads (not PRD). (Count)
system.pc.south_bridge.ide.disks1.IdeDisk.dmaReadBytes            0                       # Number of bytes transfered via DMA reads (not PRD). (Byte)
system.pc.south_bridge.ide.disks1.IdeDisk.dmaReadTxs            0                       # Number of DMA read transactions (not PRD). (Count)
system.pc.south_bridge.ide.disks1.IdeDisk.dmaWriteFullPages            0                       # Number of full page size DMA writes. (Count)
system.pc.south_bridge.ide.disks1.IdeDisk.dmaWriteBytes            0                       # Number of bytes transfered via DMA writes. (Byte)
system.pc.south_bridge.ide.disks1.IdeDisk.dmaWriteTxs            0                       # Number of DMA write transactions. (Count)
system.pc.south_bridge.ide.power_state.pwrStateResidencyTicks::UNDEFINED  46795468800                       # Cumulative time (in ticks) in various power states (Tick)
system.pc.south_bridge.io_apic.power_state.pwrStateResidencyTicks::UNDEFINED  46795468800                       # Cumulative time (in ticks) in various power states (Tick)
system.pc.south_bridge.keyboard.power_state.pwrStateResidencyTicks::UNDEFINED  46795468800                       # Cumulative time (in ticks) in various power states (Tick)
system.pc.south_bridge.pic1.power_state.pwrStateResidencyTicks::UNDEFINED  46795468800                       # Cumulative time (in ticks) in various power states (Tick)
system.pc.south_bridge.pic2.power_state.pwrStateResidencyTicks::UNDEFINED  46795468800                       # Cumulative time (in ticks) in various power states (Tick)
system.pc.south_bridge.pit.power_state.pwrStateResidencyTicks::UNDEFINED  46795468800                       # Cumulative time (in ticks) in various power states (Tick)
system.pc.south_bridge.speaker.power_state.pwrStateResidencyTicks::UNDEFINED  46795468800                       # Cumulative time (in ticks) in various power states (Tick)
system.workload.inst.arm                            0                       # number of arm instructions executed (Count)
system.workload.inst.quiesce                        0                       # number of quiesce instructions executed (Count)

---------- End Simulation Statistics   ----------
