
---------- Begin Simulation Statistics ----------
simSeconds                                   0.018620                       # Number of seconds simulated (Second)
simTicks                                  18620137700                       # Number of ticks simulated (Tick)
finalTick                                263955115887000                       # Number of ticks from beginning of simulation (restored from checkpoints and never reset) (Tick)
simFreq                                  1000000000000                       # The number of ticks per simulated second ((Tick/Second))
hostSeconds                                   6481.00                       # Real time elapsed on the host (Second)
hostTickRate                                  2873036                       # The number of ticks simulated per host second (ticks/s) ((Tick/Second))
hostMemory                                   19964392                       # Number of bytes of host memory used (Byte)
simInsts                                    141181857                       # Number of instructions simulated (Count)
simOps                                      276305881                       # Number of ops (including micro ops) simulated (Count)
hostInstRate                                    21784                       # Simulator instruction rate (inst/s) ((Count/Second))
hostOpRate                                      42633                       # Simulator op (including micro ops) rate (op/s) ((Count/Second))
system.caches.delayHistogram::bucket_size           32                       # delay histogram for all message (Unspecified)
system.caches.delayHistogram::max_bucket          319                       # delay histogram for all message (Unspecified)
system.caches.delayHistogram::samples        76052712                       # delay histogram for all message (Unspecified)
system.caches.delayHistogram::mean           8.035486                       # delay histogram for all message (Unspecified)
system.caches.delayHistogram::stdev         17.403486                       # delay histogram for all message (Unspecified)
system.caches.delayHistogram             |    67347761     88.55%     88.55% |     6929026      9.11%     97.66% |     1635537      2.15%     99.82% |      139229      0.18%    100.00% |        1158      0.00%    100.00% |           1      0.00%    100.00% |           0      0.00%    100.00% |           0      0.00%    100.00% |           0      0.00%    100.00% |           0      0.00%    100.00% # delay histogram for all message (Unspecified)
system.caches.delayHistogram::total          76052712                       # delay histogram for all message (Unspecified)
system.caches.m_outstandReqHistSeqr::bucket_size            2                       (Unspecified)
system.caches.m_outstandReqHistSeqr::max_bucket           19                       (Unspecified)
system.caches.m_outstandReqHistSeqr::samples     59243038                       (Unspecified)
system.caches.m_outstandReqHistSeqr::mean     9.341895                       (Unspecified)
system.caches.m_outstandReqHistSeqr::gmean     7.308804                       (Unspecified)
system.caches.m_outstandReqHistSeqr::stdev     5.186181                       (Unspecified)
system.caches.m_outstandReqHistSeqr      |     3852706      6.50%      6.50% |     7151183     12.07%     18.57% |     6891275     11.63%     30.21% |     5998151     10.12%     40.33% |     5822667      9.83%     50.16% |     5846804      9.87%     60.03% |     5544708      9.36%     69.39% |     5863778      9.90%     79.29% |    12271766     20.71%    100.00% |           0      0.00%    100.00% (Unspecified)
system.caches.m_outstandReqHistSeqr::total     59243038                       (Unspecified)
system.caches.m_latencyHistSeqr::bucket_size          512                       (Unspecified)
system.caches.m_latencyHistSeqr::max_bucket         5119                       (Unspecified)
system.caches.m_latencyHistSeqr::samples     59267612                       (Unspecified)
system.caches.m_latencyHistSeqr::mean       41.405857                       (Unspecified)
system.caches.m_latencyHistSeqr::gmean       4.073217                       (Unspecified)
system.caches.m_latencyHistSeqr::stdev     140.126477                       (Unspecified)
system.caches.m_latencyHistSeqr          |    57989474     97.84%     97.84% |     1210265      2.04%     99.89% |       15902      0.03%     99.91% |        3258      0.01%     99.92% |       39480      0.07%     99.98% |        9067      0.02%    100.00% |         159      0.00%    100.00% |           7      0.00%    100.00% |           0      0.00%    100.00% |           0      0.00%    100.00% (Unspecified)
system.caches.m_latencyHistSeqr::total       59267612                       (Unspecified)
system.caches.m_hitLatencyHistSeqr::bucket_size          512                       (Unspecified)
system.caches.m_hitLatencyHistSeqr::max_bucket         5119                       (Unspecified)
system.caches.m_hitLatencyHistSeqr::samples     37429316                       (Unspecified)
system.caches.m_hitLatencyHistSeqr::mean     1.114628                       (Unspecified)
system.caches.m_hitLatencyHistSeqr::gmean     1.069167                       (Unspecified)
system.caches.m_hitLatencyHistSeqr::stdev     2.128139                       (Unspecified)
system.caches.m_hitLatencyHistSeqr       |    37429198    100.00%    100.00% |          85      0.00%    100.00% |          27      0.00%    100.00% |           0      0.00%    100.00% |           1      0.00%    100.00% |           4      0.00%    100.00% |           0      0.00%    100.00% |           1      0.00%    100.00% |           0      0.00%    100.00% |           0      0.00%    100.00% (Unspecified)
system.caches.m_hitLatencyHistSeqr::total     37429316                       (Unspecified)
system.caches.m_missLatencyHistSeqr::bucket_size          512                       (Unspecified)
system.caches.m_missLatencyHistSeqr::max_bucket         5119                       (Unspecified)
system.caches.m_missLatencyHistSeqr::samples     21838296                       (Unspecified)
system.caches.m_missLatencyHistSeqr::mean   110.462213                       (Unspecified)
system.caches.m_missLatencyHistSeqr::gmean    40.322342                       (Unspecified)
system.caches.m_missLatencyHistSeqr::stdev   213.846392                       (Unspecified)
system.caches.m_missLatencyHistSeqr      |    20560276     94.15%     94.15% |     1210180      5.54%     99.69% |       15875      0.07%     99.76% |        3258      0.01%     99.78% |       39479      0.18%     99.96% |        9063      0.04%    100.00% |         159      0.00%    100.00% |           6      0.00%    100.00% |           0      0.00%    100.00% |           0      0.00%    100.00% (Unspecified)
system.caches.m_missLatencyHistSeqr::total     21838296                       (Unspecified)
system.caches.delayVCHist.vnet_0::bucket_size            8                       # delay histogram for vnet_0 (Unspecified)
system.caches.delayVCHist.vnet_0::max_bucket           79                       # delay histogram for vnet_0 (Unspecified)
system.caches.delayVCHist.vnet_0::samples     33438682                       # delay histogram for vnet_0 (Unspecified)
system.caches.delayVCHist.vnet_0::mean       0.265690                       # delay histogram for vnet_0 (Unspecified)
system.caches.delayVCHist.vnet_0::stdev      1.340659                       # delay histogram for vnet_0 (Unspecified)
system.caches.delayVCHist.vnet_0         |    32906809     98.41%     98.41% |      514627      1.54%     99.95% |       15923      0.05%    100.00% |        1091      0.00%    100.00% |         155      0.00%    100.00% |          71      0.00%    100.00% |           5      0.00%    100.00% |           0      0.00%    100.00% |           1      0.00%    100.00% |           0      0.00%    100.00% # delay histogram for vnet_0 (Unspecified)
system.caches.delayVCHist.vnet_0::total      33438682                       # delay histogram for vnet_0 (Unspecified)
system.caches.delayVCHist.vnet_1::bucket_size           32                       # delay histogram for vnet_1 (Unspecified)
system.caches.delayVCHist.vnet_1::max_bucket          319                       # delay histogram for vnet_1 (Unspecified)
system.caches.delayVCHist.vnet_1::samples     38306358                       # delay histogram for vnet_1 (Unspecified)
system.caches.delayVCHist.vnet_1::mean      15.721212                       # delay histogram for vnet_1 (Unspecified)
system.caches.delayVCHist.vnet_1::stdev     21.925809                       # delay histogram for vnet_1 (Unspecified)
system.caches.delayVCHist.vnet_1         |    29601639     77.28%     77.28% |     6928795     18.09%     95.36% |     1635536      4.27%     99.63% |      139229      0.36%    100.00% |        1158      0.00%    100.00% |           1      0.00%    100.00% |           0      0.00%    100.00% |           0      0.00%    100.00% |           0      0.00%    100.00% |           0      0.00%    100.00% # delay histogram for vnet_1 (Unspecified)
system.caches.delayVCHist.vnet_1::total      38306358                       # delay histogram for vnet_1 (Unspecified)
system.caches.delayVCHist.vnet_2::bucket_size            1                       # delay histogram for vnet_2 (Unspecified)
system.caches.delayVCHist.vnet_2::max_bucket            9                       # delay histogram for vnet_2 (Unspecified)
system.caches.delayVCHist.vnet_2::samples      4307672                       # delay histogram for vnet_2 (Unspecified)
system.caches.delayVCHist.vnet_2::mean       0.003195                       # delay histogram for vnet_2 (Unspecified)
system.caches.delayVCHist.vnet_2::stdev      0.079923                       # delay histogram for vnet_2 (Unspecified)
system.caches.delayVCHist.vnet_2         |     4300794     99.84%     99.84% |           0      0.00%     99.84% |        6874      0.16%    100.00% |           0      0.00%    100.00% |           4      0.00%    100.00% |           0      0.00%    100.00% |           0      0.00%    100.00% |           0      0.00%    100.00% |           0      0.00%    100.00% |           0      0.00%    100.00% # delay histogram for vnet_2 (Unspecified)
system.caches.delayVCHist.vnet_2::total       4307672                       # delay histogram for vnet_2 (Unspecified)
system.caches.L1Cache_Controller.Load    |     6542369     12.47%     12.47% |     6540375     12.47%     24.94% |     6577743     12.54%     37.48% |     6512193     12.41%     49.89% |     6514669     12.42%     62.31% |     6572705     12.53%     74.84% |     6586329     12.55%     87.39% |     6614503     12.61%    100.00% (Unspecified)
system.caches.L1Cache_Controller.Load::total     52460886                       (Unspecified)
system.caches.L1Cache_Controller.Ifetch  |      718128     12.43%     12.43% |      680037     11.77%     24.20% |      740277     12.81%     37.01% |      699239     12.10%     49.11% |      686138     11.87%     60.98% |      756120     13.08%     74.07% |      735993     12.74%     86.80% |      762605     13.20%    100.00% (Unspecified)
system.caches.L1Cache_Controller.Ifetch::total      5778537                       (Unspecified)
system.caches.L1Cache_Controller.Store   |      131353     12.77%     12.77% |      120973     11.77%     24.54% |      131473     12.79%     37.33% |      123733     12.03%     49.36% |      121952     11.86%     61.22% |      133867     13.02%     74.24% |      129472     12.59%     86.83% |      135405     13.17%    100.00% (Unspecified)
system.caches.L1Cache_Controller.Store::total      1028228                       (Unspecified)
system.caches.L1Cache_Controller.Inv     |      430902     12.55%     12.55% |      431980     12.58%     25.13% |      426335     12.42%     37.55% |      432117     12.59%     50.14% |      431860     12.58%     62.71% |      426295     12.42%     75.13% |      428011     12.47%     87.60% |      425878     12.40%    100.00% (Unspecified)
system.caches.L1Cache_Controller.Inv::total      3433378                       (Unspecified)
system.caches.L1Cache_Controller.L1_Replacement |     2717938     12.52%     12.52% |     2738261     12.61%     25.12% |     2691654     12.39%     37.52% |     2741673     12.62%     50.14% |     2748955     12.66%     62.80% |     2686039     12.37%     75.17% |     2712922     12.49%     87.66% |     2678990     12.34%    100.00% (Unspecified)
system.caches.L1Cache_Controller.L1_Replacement::total     21716432                       (Unspecified)
system.caches.L1Cache_Controller.Fwd_GETX |        1611     12.43%     12.43% |        1533     11.83%     24.26% |        1676     12.94%     37.20% |        1560     12.04%     49.24% |        1547     11.94%     61.18% |        1684     13.00%     74.18% |        1630     12.58%     86.76% |        1716     13.24%    100.00% (Unspecified)
system.caches.L1Cache_Controller.Fwd_GETX::total        12957                       (Unspecified)
system.caches.L1Cache_Controller.Fwd_GETS |      108029     12.54%     12.54% |      108116     12.55%     25.09% |      107038     12.43%     37.52% |      108881     12.64%     50.16% |      108378     12.58%     62.74% |      106915     12.41%     75.16% |      107154     12.44%     87.60% |      106825     12.40%    100.00% (Unspecified)
system.caches.L1Cache_Controller.Fwd_GETS::total       861336                       (Unspecified)
system.caches.L1Cache_Controller.Fwd_GET_INSTR |           1    100.00%    100.00% |           0      0.00%    100.00% |           0      0.00%    100.00% |           0      0.00%    100.00% |           0      0.00%    100.00% |           0      0.00%    100.00% |           0      0.00%    100.00% |           0      0.00%    100.00% (Unspecified)
system.caches.L1Cache_Controller.Fwd_GET_INSTR::total            1                       (Unspecified)
system.caches.L1Cache_Controller.Data    |          15    100.00%    100.00% |           0      0.00%    100.00% |           0      0.00%    100.00% |           0      0.00%    100.00% |           0      0.00%    100.00% |           0      0.00%    100.00% |           0      0.00%    100.00% |           0      0.00%    100.00% (Unspecified)
system.caches.L1Cache_Controller.Data::total           15                       (Unspecified)
system.caches.L1Cache_Controller.Data_Exclusive |      717622     12.42%     12.42% |      730133     12.63%     25.05% |      716083     12.39%     37.44% |      731667     12.66%     50.10% |      732186     12.67%     62.77% |      717037     12.41%     75.17% |      721654     12.49%     87.66% |      713341     12.34%    100.00% (Unspecified)
system.caches.L1Cache_Controller.Data_Exclusive::total      5779723                       (Unspecified)
system.caches.L1Cache_Controller.DataS_fromL1 |      107407     12.47%     12.47% |      109468     12.71%     25.18% |      106300     12.34%     37.52% |      109195     12.68%     50.20% |      108175     12.56%     62.76% |      107828     12.52%     75.28% |      107110     12.44%     87.71% |      105854     12.29%    100.00% (Unspecified)
system.caches.L1Cache_Controller.DataS_fromL1::total       861337                       (Unspecified)
system.caches.L1Cache_Controller.Data_all_Acks |     1899608     12.51%     12.51% |     1912969     12.60%     25.11% |     1883774     12.41%     37.52% |     1915081     12.61%     50.13% |     1922782     12.66%     62.80% |     1875636     12.35%     75.15% |     1898637     12.51%     87.65% |     1874420     12.35%    100.00% (Unspecified)
system.caches.L1Cache_Controller.Data_all_Acks::total     15182907                       (Unspecified)
system.caches.L1Cache_Controller.Ack     |        2054     14.18%     14.18% |        1675     11.56%     25.73% |        1840     12.70%     38.43% |        1732     11.95%     50.39% |        1687     11.64%     62.03% |        1848     12.75%     74.78% |        1786     12.33%     87.11% |        1868     12.89%    100.00% (Unspecified)
system.caches.L1Cache_Controller.Ack::total        14490                       (Unspecified)
system.caches.L1Cache_Controller.Ack_all |        1893     13.21%     13.21% |        1675     11.69%     24.90% |        1840     12.84%     37.74% |        1732     12.09%     49.83% |        1687     11.77%     61.60% |        1848     12.90%     74.50% |        1786     12.46%     86.96% |        1868     13.04%    100.00% (Unspecified)
system.caches.L1Cache_Controller.Ack_all::total        14329                       (Unspecified)
system.caches.L1Cache_Controller.WB_Ack  |      622656     12.64%     12.64% |      621183     12.61%     25.24% |      608520     12.35%     37.59% |      622182     12.63%     50.22% |      623251     12.65%     62.87% |      609607     12.37%     75.24% |      614093     12.46%     87.70% |      605890     12.30%    100.00% (Unspecified)
system.caches.L1Cache_Controller.WB_Ack::total      4927382                       (Unspecified)
system.caches.L1Cache_Controller.NP.Load |     2716774     12.48%     12.48% |     2745726     12.61%     25.10% |     2699062     12.40%     37.49% |     2749041     12.63%     50.12% |     2756408     12.66%     62.79% |     2693445     12.37%     75.16% |     2720336     12.50%     87.66% |     2686489     12.34%    100.00% (Unspecified)
system.caches.L1Cache_Controller.NP.Load::total     21767281                       (Unspecified)
system.caches.L1Cache_Controller.NP.Ifetch |         571     16.56%     16.56% |         371     10.76%     27.31% |         436     12.64%     39.95% |         432     12.53%     52.48% |         381     11.05%     63.53% |         440     12.76%     76.28% |         434     12.58%     88.87% |         384     11.13%    100.00% (Unspecified)
system.caches.L1Cache_Controller.NP.Ifetch::total         3449                       (Unspecified)
system.caches.L1Cache_Controller.NP.Store |         812     17.64%     17.64% |         542     11.77%     29.41% |         543     11.79%     41.20% |         582     12.64%     53.84% |         554     12.03%     65.88% |         541     11.75%     77.63% |         523     11.36%     88.99% |         507     11.01%    100.00% (Unspecified)
system.caches.L1Cache_Controller.NP.Store::total         4604                       (Unspecified)
system.caches.L1Cache_Controller.NP.Inv  |      417299     12.54%     12.54% |      418968     12.59%     25.13% |      412939     12.41%     37.54% |      419242     12.60%     50.14% |      419171     12.60%     62.73% |      413042     12.41%     75.14% |      414845     12.47%     87.61% |      412291     12.39%    100.00% (Unspecified)
system.caches.L1Cache_Controller.NP.Inv::total      3327797                       (Unspecified)
system.caches.L1Cache_Controller.I.Load  |        1786     12.47%     12.47% |        1821     12.71%     25.18% |        1879     13.12%     38.29% |        1759     12.28%     50.57% |        1621     11.32%     61.89% |        1791     12.50%     74.39% |        1841     12.85%     87.24% |        1828     12.76%    100.00% (Unspecified)
system.caches.L1Cache_Controller.I.Load::total        14326                       (Unspecified)
system.caches.L1Cache_Controller.I.Ifetch |        3098     14.52%     14.52% |        2582     12.10%     26.62% |        2563     12.01%     38.63% |        2576     12.07%     50.70% |        2621     12.28%     62.98% |        2603     12.20%     75.18% |        2627     12.31%     87.49% |        2670     12.51%    100.00% (Unspecified)
system.caches.L1Cache_Controller.I.Ifetch::total        21340                       (Unspecified)
system.caches.L1Cache_Controller.I.Store |        1610     12.43%     12.43% |        1530     11.82%     24.25% |        1673     12.92%     37.17% |        1544     11.92%     49.09% |        1553     11.99%     61.09% |        1676     12.94%     74.03% |        1631     12.60%     86.62% |        1732     13.38%    100.00% (Unspecified)
system.caches.L1Cache_Controller.I.Store::total        12949                       (Unspecified)
system.caches.L1Cache_Controller.I.L1_Replacement |        8546     12.45%     12.45% |        8464     12.33%     24.79% |        8804     12.83%     37.62% |        8393     12.23%     49.85% |        8280     12.07%     61.92% |        8697     12.67%     74.59% |        8531     12.43%     87.02% |        8905     12.98%    100.00% (Unspecified)
system.caches.L1Cache_Controller.I.L1_Replacement::total        68620                       (Unspecified)
system.caches.L1Cache_Controller.S.Load  |     2765345     12.46%     12.46% |     2759483     12.43%     24.90% |     2804300     12.64%     37.53% |     2722920     12.27%     49.80% |     2720817     12.26%     62.06% |     2800381     12.62%     74.68% |     2794096     12.59%     87.27% |     2824631     12.73%    100.00% (Unspecified)
system.caches.L1Cache_Controller.S.Load::total     22191973                       (Unspecified)
system.caches.L1Cache_Controller.S.Ifetch |      714458     12.42%     12.42% |      677084     11.77%     24.18% |      737278     12.81%     37.00% |      696231     12.10%     49.10% |      683136     11.87%     60.97% |      753077     13.09%     74.06% |      732932     12.74%     86.80% |      759551     13.20%    100.00% (Unspecified)
system.caches.L1Cache_Controller.S.Ifetch::total      5753747                       (Unspecified)
system.caches.L1Cache_Controller.S.Store |        1883     13.10%     13.10% |        1678     11.68%     24.78% |        1843     12.83%     37.61% |        1743     12.13%     49.74% |        1694     11.79%     61.53% |        1856     12.92%     74.44% |        1797     12.51%     86.95% |        1875     13.05%    100.00% (Unspecified)
system.caches.L1Cache_Controller.S.Store::total        14369                       (Unspecified)
system.caches.L1Cache_Controller.S.Inv   |       10995     13.02%     13.02% |       10317     12.21%     25.23% |       10696     12.66%     37.90% |       10303     12.20%     50.09% |       10177     12.05%     62.14% |       10650     12.61%     74.75% |       10542     12.48%     87.23% |       10783     12.77%    100.00% (Unspecified)
system.caches.L1Cache_Controller.S.Inv::total        84463                       (Unspecified)
system.caches.L1Cache_Controller.S.L1_Replacement |     2086736     12.48%     12.48% |     2108614     12.61%     25.09% |     2074330     12.41%     37.50% |     2111098     12.63%     50.12% |     2117424     12.66%     62.79% |     2067735     12.37%     75.15% |     2090296     12.50%     87.65% |     2064195     12.35%    100.00% (Unspecified)
system.caches.L1Cache_Controller.S.L1_Replacement::total     16720428                       (Unspecified)
system.caches.L1Cache_Controller.E.Load  |      928497     12.44%     12.44% |      913321     12.23%     24.67% |      941862     12.62%     37.29% |      916025     12.27%     49.56% |      915168     12.26%     61.82% |      941970     12.62%     74.43% |      941144     12.61%     87.04% |      967495     12.96%    100.00% (Unspecified)
system.caches.L1Cache_Controller.E.Load::total      7465482                       (Unspecified)
system.caches.L1Cache_Controller.E.Store |        6680     12.54%     12.54% |        6262     11.76%     24.30% |        6814     12.79%     37.09% |        6417     12.05%     49.13% |        6335     11.89%     61.03% |        6957     13.06%     74.09% |        6745     12.66%     86.75% |        7059     13.25%    100.00% (Unspecified)
system.caches.L1Cache_Controller.E.Store::total        53269                       (Unspecified)
system.caches.L1Cache_Controller.E.Inv   |        2528     12.36%     12.36% |        2605     12.74%     25.10% |        2598     12.70%     37.81% |        2496     12.21%     50.01% |        2429     11.88%     61.89% |        2527     12.36%     74.25% |        2548     12.46%     86.71% |        2718     13.29%    100.00% (Unspecified)
system.caches.L1Cache_Controller.E.Inv::total        20449                       (Unspecified)
system.caches.L1Cache_Controller.E.L1_Replacement |      602724     12.41%     12.41% |      614458     12.65%     25.06% |      601229     12.38%     37.43% |      615214     12.67%     50.10% |      616432     12.69%     62.79% |      602174     12.40%     75.19% |      606937     12.49%     87.68% |      598420     12.32%    100.00% (Unspecified)
system.caches.L1Cache_Controller.E.L1_Replacement::total      4857588                       (Unspecified)
system.caches.L1Cache_Controller.E.Fwd_GETX |           0      0.00%      0.00% |           6     42.86%     42.86% |           8     57.14%    100.00% |           0      0.00%    100.00% |           0      0.00%    100.00% |           0      0.00%    100.00% |           0      0.00%    100.00% |           0      0.00%    100.00% (Unspecified)
system.caches.L1Cache_Controller.E.Fwd_GETX::total           14                       (Unspecified)
system.caches.L1Cache_Controller.E.Fwd_GETS |      105004     12.41%     12.41% |      106449     12.58%     25.00% |      105226     12.44%     37.43% |      107193     12.67%     50.11% |      106688     12.61%     62.72% |      105100     12.42%     75.14% |      105349     12.45%     87.59% |      104949     12.41%    100.00% (Unspecified)
system.caches.L1Cache_Controller.E.Fwd_GETS::total       845958                       (Unspecified)
system.caches.L1Cache_Controller.E.Fwd_GET_INSTR |           1    100.00%    100.00% |           0      0.00%    100.00% |           0      0.00%    100.00% |           0      0.00%    100.00% |           0      0.00%    100.00% |           0      0.00%    100.00% |           0      0.00%    100.00% |           0      0.00%    100.00% (Unspecified)
system.caches.L1Cache_Controller.E.Fwd_GET_INSTR::total            1                       (Unspecified)
system.caches.L1Cache_Controller.M.Load  |      129965     12.72%     12.72% |      120022     11.75%     24.47% |      130635     12.78%     37.25% |      122448     11.98%     49.23% |      120653     11.81%     61.04% |      135115     13.22%     74.26% |      128912     12.62%     86.88% |      134058     13.12%    100.00% (Unspecified)
system.caches.L1Cache_Controller.M.Load::total      1021808                       (Unspecified)
system.caches.L1Cache_Controller.M.Store |      120368     12.76%     12.76% |      110961     11.77%     24.53% |      120600     12.79%     37.32% |      113447     12.03%     49.35% |      111816     11.86%     61.21% |      122837     13.03%     74.23% |      118776     12.60%     86.83% |      124232     13.17%    100.00% (Unspecified)
system.caches.L1Cache_Controller.M.Store::total       943037                       (Unspecified)
system.caches.L1Cache_Controller.M.Inv   |          75     12.91%     12.91% |          80     13.77%     26.68% |          83     14.29%     40.96% |          59     10.15%     51.12% |          74     12.74%     63.86% |          68     11.70%     75.56% |          65     11.19%     86.75% |          77     13.25%    100.00% (Unspecified)
system.caches.L1Cache_Controller.M.Inv::total          581                       (Unspecified)
system.caches.L1Cache_Controller.M.L1_Replacement |       19932     28.56%     28.56% |        6725      9.64%     38.19% |        7291     10.45%     48.64% |        6968      9.98%     58.62% |        6819      9.77%     68.39% |        7433     10.65%     79.04% |        7156     10.25%     89.30% |        7470     10.70%    100.00% (Unspecified)
system.caches.L1Cache_Controller.M.L1_Replacement::total        69794                       (Unspecified)
system.caches.L1Cache_Controller.M.Fwd_GETX |        1611     12.45%     12.45% |        1527     11.80%     24.24% |        1668     12.89%     37.13% |        1560     12.05%     49.18% |        1547     11.95%     61.14% |        1684     13.01%     74.15% |        1630     12.59%     86.74% |        1716     13.26%    100.00% (Unspecified)
system.caches.L1Cache_Controller.M.Fwd_GETX::total        12943                       (Unspecified)
system.caches.L1Cache_Controller.M.Fwd_GETS |        3024     19.68%     19.68% |        1665     10.84%     30.52% |        1810     11.78%     42.29% |        1686     10.97%     53.27% |        1688     10.99%     64.25% |        1815     11.81%     76.06% |        1803     11.73%     87.80% |        1875     12.20%    100.00% (Unspecified)
system.caches.L1Cache_Controller.M.Fwd_GETS::total        15366                       (Unspecified)
system.caches.L1Cache_Controller.IS.Inv  |           0      0.00%      0.00% |           7     23.33%     23.33% |          16     53.33%     76.67% |           6     20.00%     96.67% |           1      3.33%    100.00% |           0      0.00%    100.00% |           0      0.00%    100.00% |           0      0.00%    100.00% (Unspecified)
system.caches.L1Cache_Controller.IS.Inv::total           30                       (Unspecified)
system.caches.L1Cache_Controller.IS.L1_Replacement |           0      0.00%      0.00% |           0      0.00%      0.00% |           0      0.00%      0.00% |           0      0.00%      0.00% |           0      0.00%      0.00% |           0      0.00%      0.00% |           2    100.00%    100.00% |           0      0.00%    100.00% (Unspecified)
system.caches.L1Cache_Controller.IS.L1_Replacement::total            2                       (Unspecified)
system.caches.L1Cache_Controller.IS.Data_Exclusive |      717622     12.42%     12.42% |      730133     12.63%     25.05% |      716082     12.39%     37.44% |      731667     12.66%     50.10% |      732185     12.67%     62.77% |      717037     12.41%     75.17% |      721654     12.49%     87.66% |      713341     12.34%    100.00% (Unspecified)
system.caches.L1Cache_Controller.IS.Data_Exclusive::total      5779721                       (Unspecified)
system.caches.L1Cache_Controller.IS.DataS_fromL1 |      107407     12.47%     12.47% |      109468     12.71%     25.18% |      106300     12.34%     37.52% |      109195     12.68%     50.20% |      108175     12.56%     62.76% |      107828     12.52%     75.28% |      107110     12.44%     87.71% |      105854     12.29%    100.00% (Unspecified)
system.caches.L1Cache_Controller.IS.DataS_fromL1::total       861337                       (Unspecified)
system.caches.L1Cache_Controller.IS.Data_all_Acks |     1897196     12.51%     12.51% |     1910887     12.60%     25.11% |     1881540     12.41%     37.52% |     1912938     12.61%     50.13% |     1920668     12.66%     62.80% |     1873411     12.35%     75.15% |     1896472     12.51%     87.65% |     1872174     12.35%    100.00% (Unspecified)
system.caches.L1Cache_Controller.IS.Data_all_Acks::total     15165286                       (Unspecified)
system.caches.L1Cache_Controller.IM.Data |          15    100.00%    100.00% |           0      0.00%    100.00% |           0      0.00%    100.00% |           0      0.00%    100.00% |           0      0.00%    100.00% |           0      0.00%    100.00% |           0      0.00%    100.00% |           0      0.00%    100.00% (Unspecified)
system.caches.L1Cache_Controller.IM.Data::total           15                       (Unspecified)
system.caches.L1Cache_Controller.IM.Data_all_Acks |        2412     13.71%     13.71% |        2075     11.79%     25.50% |        2219     12.61%     38.12% |        2137     12.15%     50.26% |        2114     12.02%     62.28% |        2225     12.65%     74.93% |        2165     12.31%     87.23% |        2246     12.77%    100.00% (Unspecified)
system.caches.L1Cache_Controller.IM.Data_all_Acks::total        17593                       (Unspecified)
system.caches.L1Cache_Controller.SM.Inv  |           5      9.09%      9.09% |           3      5.45%     14.55% |           3      5.45%     20.00% |          11     20.00%     40.00% |           7     12.73%     52.73% |           8     14.55%     67.27% |          11     20.00%     87.27% |           7     12.73%    100.00% (Unspecified)
system.caches.L1Cache_Controller.SM.Inv::total           55                       (Unspecified)
system.caches.L1Cache_Controller.SM.Ack  |        2054     14.18%     14.18% |        1675     11.56%     25.73% |        1840     12.70%     38.43% |        1732     11.95%     50.39% |        1687     11.64%     62.03% |        1848     12.75%     74.78% |        1786     12.33%     87.11% |        1868     12.89%    100.00% (Unspecified)
system.caches.L1Cache_Controller.SM.Ack::total        14490                       (Unspecified)
system.caches.L1Cache_Controller.SM.Ack_all |        1893     13.21%     13.21% |        1675     11.69%     24.90% |        1840     12.84%     37.74% |        1732     12.09%     49.83% |        1687     11.77%     61.60% |        1848     12.90%     74.50% |        1786     12.46%     86.96% |        1868     13.04%    100.00% (Unspecified)
system.caches.L1Cache_Controller.SM.Ack_all::total        14329                       (Unspecified)
system.caches.L1Cache_Controller.IS_I.Data_Exclusive |           0      0.00%      0.00% |           0      0.00%      0.00% |           1     50.00%     50.00% |           0      0.00%     50.00% |           1     50.00%    100.00% |           0      0.00%    100.00% |           0      0.00%    100.00% |           0      0.00%    100.00% (Unspecified)
system.caches.L1Cache_Controller.IS_I.Data_Exclusive::total            2                       (Unspecified)
system.caches.L1Cache_Controller.IS_I.Data_all_Acks |           0      0.00%      0.00% |           7     25.00%     25.00% |          15     53.57%     78.57% |           6     21.43%    100.00% |           0      0.00%    100.00% |           0      0.00%    100.00% |           0      0.00%    100.00% |           0      0.00%    100.00% (Unspecified)
system.caches.L1Cache_Controller.IS_I.Data_all_Acks::total           28                       (Unspecified)
system.caches.L1Cache_Controller.M_I.Load |           2     12.50%     12.50% |           2     12.50%     25.00% |           5     31.25%     56.25% |           0      0.00%     56.25% |           2     12.50%     68.75% |           3     18.75%     87.50% |           0      0.00%     87.50% |           2     12.50%    100.00% (Unspecified)
system.caches.L1Cache_Controller.M_I.Load::total           16                       (Unspecified)
system.caches.L1Cache_Controller.M_I.Ifetch |           1    100.00%    100.00% |           0      0.00%    100.00% |           0      0.00%    100.00% |           0      0.00%    100.00% |           0      0.00%    100.00% |           0      0.00%    100.00% |           0      0.00%    100.00% |           0      0.00%    100.00% (Unspecified)
system.caches.L1Cache_Controller.M_I.Ifetch::total            1                       (Unspecified)
system.caches.L1Cache_Controller.M_I.Inv |           0      0.00%      0.00% |           0      0.00%      0.00% |           0      0.00%      0.00% |           0      0.00%      0.00% |           1     33.33%     33.33% |           0      0.00%     33.33% |           0      0.00%     33.33% |           2     66.67%    100.00% (Unspecified)
system.caches.L1Cache_Controller.M_I.Inv::total            3                       (Unspecified)
system.caches.L1Cache_Controller.M_I.Fwd_GETS |           1      8.33%      8.33% |           2     16.67%     25.00% |           2     16.67%     41.67% |           2     16.67%     58.33% |           2     16.67%     75.00% |           0      0.00%     75.00% |           2     16.67%     91.67% |           1      8.33%    100.00% (Unspecified)
system.caches.L1Cache_Controller.M_I.Fwd_GETS::total           12                       (Unspecified)
system.caches.L1Cache_Controller.M_I.WB_Ack |      622655     12.64%     12.64% |      621181     12.61%     25.24% |      608518     12.35%     37.59% |      622180     12.63%     50.22% |      623248     12.65%     62.87% |      609607     12.37%     75.24% |      614091     12.46%     87.70% |      605887     12.30%    100.00% (Unspecified)
system.caches.L1Cache_Controller.M_I.WB_Ack::total      4927367                       (Unspecified)
system.caches.L1Cache_Controller.SINK_WB_ACK.WB_Ack |           1      6.67%      6.67% |           2     13.33%     20.00% |           2     13.33%     33.33% |           2     13.33%     46.67% |           3     20.00%     66.67% |           0      0.00%     66.67% |           2     13.33%     80.00% |           3     20.00%    100.00% (Unspecified)
system.caches.L1Cache_Controller.SINK_WB_ACK.WB_Ack::total           15                       (Unspecified)
system.caches.Directory_Controller.Fetch |        4326      0.12%      0.12% |     3684203     99.88%    100.00% (Unspecified)
system.caches.Directory_Controller.Fetch::total      3688529                       (Unspecified)
system.caches.Directory_Controller.Data  |         289      0.25%      0.25% |      114369     99.75%    100.00% (Unspecified)
system.caches.Directory_Controller.Data::total       114658                       (Unspecified)
system.caches.Directory_Controller.Memory_Data |        4326      0.12%      0.12% |     3684182     99.88%    100.00% (Unspecified)
system.caches.Directory_Controller.Memory_Data::total      3688508                       (Unspecified)
system.caches.Directory_Controller.Memory_Ack |         289      0.25%      0.25% |      114369     99.75%    100.00% (Unspecified)
system.caches.Directory_Controller.Memory_Ack::total       114658                       (Unspecified)
system.caches.Directory_Controller.CleanReplacement |        3998      0.12%      0.12% |     3438801     99.88%    100.00% (Unspecified)
system.caches.Directory_Controller.CleanReplacement::total      3442799                       (Unspecified)
system.caches.Directory_Controller.I.Fetch |        4326      0.12%      0.12% |     3684203     99.88%    100.00% (Unspecified)
system.caches.Directory_Controller.I.Fetch::total      3688529                       (Unspecified)
system.caches.Directory_Controller.M.Data |         289      0.25%      0.25% |      114369     99.75%    100.00% (Unspecified)
system.caches.Directory_Controller.M.Data::total       114658                       (Unspecified)
system.caches.Directory_Controller.M.CleanReplacement |        3998      0.12%      0.12% |     3438801     99.88%    100.00% (Unspecified)
system.caches.Directory_Controller.M.CleanReplacement::total      3442799                       (Unspecified)
system.caches.Directory_Controller.IM.Memory_Data |        4326      0.12%      0.12% |     3684182     99.88%    100.00% (Unspecified)
system.caches.Directory_Controller.IM.Memory_Data::total      3688508                       (Unspecified)
system.caches.Directory_Controller.MI.Memory_Ack |         289      0.25%      0.25% |      114369     99.75%    100.00% (Unspecified)
system.caches.Directory_Controller.MI.Memory_Ack::total       114658                       (Unspecified)
system.caches.L2Cache_Controller.L1_GET_INSTR |        2727     10.99%     10.99% |        3621     14.60%     25.59% |        3050     12.29%     37.88% |        2087      8.41%     46.30% |        3214     12.96%     59.25% |        3306     13.33%     72.58% |        3369     13.58%     86.16% |        3434     13.84%    100.00% (Unspecified)
system.caches.L2Cache_Controller.L1_GET_INSTR::total        24808                       (Unspecified)
system.caches.L2Cache_Controller.L1_GETS |     2744933     12.60%     12.60% |     2735040     12.56%     25.16% |     2724792     12.51%     37.67% |     2720816     12.49%     50.16% |     2709307     12.44%     62.60% |     2731500     12.54%     75.14% |     2698916     12.39%     87.53% |     2716900     12.47%    100.00% (Unspecified)
system.caches.L2Cache_Controller.L1_GETS::total     21782204                       (Unspecified)
system.caches.L2Cache_Controller.L1_GETX |         952      5.39%      5.39% |         891      5.05%     10.44% |          78      0.44%     10.88% |       13004     73.66%     84.54% |         528      2.99%     87.53% |        1023      5.79%     93.33% |         504      2.85%     96.18% |         674      3.82%    100.00% (Unspecified)
system.caches.L2Cache_Controller.L1_GETX::total        17654                       (Unspecified)
system.caches.L2Cache_Controller.L1_UPGRADE |           1      0.01%      0.01% |        7162     49.67%     49.68% |           1      0.01%     49.69% |           0      0.00%     49.69% |           0      0.00%     49.69% |        7143     49.54%     99.23% |         111      0.77%    100.00% |           0      0.00%    100.00% (Unspecified)
system.caches.L2Cache_Controller.L1_UPGRADE::total        14418                       (Unspecified)
system.caches.L2Cache_Controller.L1_PUTX |      609706     12.37%     12.37% |      618538     12.55%     24.93% |      615175     12.48%     37.41% |      616759     12.52%     49.93% |      616139     12.50%     62.43% |      619700     12.58%     75.01% |      613366     12.45%     87.46% |      618008     12.54%    100.00% (Unspecified)
system.caches.L2Cache_Controller.L1_PUTX::total      4927391                       (Unspecified)
system.caches.L2Cache_Controller.L1_PUTX_old |           0      0.00%      0.00% |           0      0.00%      0.00% |           0      0.00%      0.00% |           2     33.33%     33.33% |           0      0.00%     33.33% |           2     33.33%     66.67% |           2     33.33%    100.00% |           0      0.00%    100.00% (Unspecified)
system.caches.L2Cache_Controller.L1_PUTX_old::total            6                       (Unspecified)
system.caches.L2Cache_Controller.L2_Replacement |       14352     12.56%     12.56% |       14250     12.47%     25.03% |       13783     12.06%     37.09% |       14212     12.44%     49.53% |       14214     12.44%     61.97% |       14706     12.87%     74.84% |       14323     12.53%     87.38% |       14426     12.62%    100.00% (Unspecified)
system.caches.L2Cache_Controller.L2_Replacement::total       114266                       (Unspecified)
system.caches.L2Cache_Controller.L2_Replacement_clean |      429945     12.49%     12.49% |      430855     12.51%     25.00% |      429017     12.46%     37.46% |      431495     12.53%     49.99% |      430323     12.50%     62.49% |      431508     12.53%     75.02% |      429107     12.46%     87.48% |      430941     12.52%    100.00% (Unspecified)
system.caches.L2Cache_Controller.L2_Replacement_clean::total      3443191                       (Unspecified)
system.caches.L2Cache_Controller.Mem_Data |      460680     12.49%     12.49% |      461487     12.51%     25.00% |      459181     12.45%     37.45% |      462089     12.53%     49.98% |      460918     12.50%     62.47% |      462592     12.54%     75.02% |      459813     12.47%     87.48% |      461748     12.52%    100.00% (Unspecified)
system.caches.L2Cache_Controller.Mem_Data::total      3688508                       (Unspecified)
system.caches.L2Cache_Controller.Mem_Ack |      444297     12.49%     12.49% |      445105     12.51%     25.00% |      442800     12.45%     37.45% |      445707     12.53%     49.98% |      444537     12.50%     62.47% |      446214     12.54%     75.02% |      443430     12.46%     87.48% |      445367     12.52%    100.00% (Unspecified)
system.caches.L2Cache_Controller.Mem_Ack::total      3557457                       (Unspecified)
system.caches.L2Cache_Controller.WB_Data |         324      2.03%      2.03% |        7347     46.07%     48.10% |         183      1.15%     49.25% |         194      1.22%     50.47% |         184      1.15%     51.62% |        7249     45.46%     97.08% |         285      1.79%     98.86% |         181      1.14%    100.00% (Unspecified)
system.caches.L2Cache_Controller.WB_Data::total        15947                       (Unspecified)
system.caches.L2Cache_Controller.WB_Data_clean |      115751     13.68%     13.68% |      104343     12.33%     26.02% |      103492     12.23%     38.25% |      104803     12.39%     50.64% |      104264     12.32%     62.96% |      104393     12.34%     75.30% |      104218     12.32%     87.62% |      104710     12.38%    100.00% (Unspecified)
system.caches.L2Cache_Controller.WB_Data_clean::total       845974                       (Unspecified)
system.caches.L2Cache_Controller.Ack     |      337388     12.78%     12.78% |      328685     12.45%     25.24% |      326550     12.37%     37.61% |      329658     12.49%     50.11% |      329195     12.47%     62.58% |      328761     12.46%     75.04% |      328155     12.43%     87.47% |      330625     12.53%    100.00% (Unspecified)
system.caches.L2Cache_Controller.Ack::total      2639017                       (Unspecified)
system.caches.L2Cache_Controller.Ack_all |      106797     13.70%     13.70% |       96075     12.33%     26.03% |       95257     12.22%     38.26% |       96510     12.38%     50.64% |       96082     12.33%     62.97% |       96131     12.34%     75.31% |       95974     12.32%     87.62% |       96446     12.38%    100.00% (Unspecified)
system.caches.L2Cache_Controller.Ack_all::total       779272                       (Unspecified)
system.caches.L2Cache_Controller.Unblock |      115924     13.46%     13.46% |      111525     12.95%     26.41% |      103636     12.03%     38.44% |      104961     12.19%     50.62% |      104401     12.12%     62.75% |      111600     12.96%     75.70% |      104456     12.13%     87.83% |      104834     12.17%    100.00% (Unspecified)
system.caches.L2Cache_Controller.Unblock::total       861337                       (Unspecified)
system.caches.L2Cache_Controller.Exclusive_Unblock |      726613     12.50%     12.50% |      731628     12.59%     25.09% |      719980     12.39%     37.48% |      735673     12.66%     50.14% |      721888     12.42%     62.56% |      732658     12.61%     75.17% |      719175     12.37%     87.54% |      724030     12.46%    100.00% (Unspecified)
system.caches.L2Cache_Controller.Exclusive_Unblock::total      5811645                       (Unspecified)
system.caches.L2Cache_Controller.NP.L1_GET_INSTR |         434     11.78%     11.78% |         512     13.90%     25.68% |         474     12.87%     38.55% |         330      8.96%     47.50% |         482     13.08%     60.59% |         479     13.00%     73.59% |         453     12.30%     85.88% |         520     14.12%    100.00% (Unspecified)
system.caches.L2Cache_Controller.NP.L1_GET_INSTR::total         3684                       (Unspecified)
system.caches.L2Cache_Controller.NP.L1_GETS |      459609     12.48%     12.48% |      460481     12.51%     24.99% |      458649     12.46%     37.45% |      461466     12.53%     49.99% |      460042     12.50%     62.48% |      461495     12.54%     75.02% |      459003     12.47%     87.48% |      460746     12.52%    100.00% (Unspecified)
system.caches.L2Cache_Controller.NP.L1_GETS::total      3681491                       (Unspecified)
system.caches.L2Cache_Controller.NP.L1_GETX |         638     19.02%     19.02% |         496     14.79%     33.81% |          61      1.82%     35.63% |         295      8.80%     44.42% |         397     11.84%     56.26% |         624     18.60%     74.87% |         358     10.67%     85.54% |         485     14.46%    100.00% (Unspecified)
system.caches.L2Cache_Controller.NP.L1_GETX::total         3354                       (Unspecified)
system.caches.L2Cache_Controller.NP.L1_PUTX_old |           0      0.00%      0.00% |           0      0.00%      0.00% |           0      0.00%      0.00% |           1     33.33%     33.33% |           0      0.00%     33.33% |           1     33.33%     66.67% |           1     33.33%    100.00% |           0      0.00%    100.00% (Unspecified)
system.caches.L2Cache_Controller.NP.L1_PUTX_old::total            3                       (Unspecified)
system.caches.L2Cache_Controller.SS.L1_GET_INSTR |        1603     10.33%     10.33% |        2287     14.74%     25.07% |        1929     12.43%     37.51% |        1197      7.72%     45.22% |        1939     12.50%     57.72% |        2041     13.16%     70.88% |        2242     14.45%     85.33% |        2276     14.67%    100.00% (Unspecified)
system.caches.L2Cache_Controller.SS.L1_GET_INSTR::total        15514                       (Unspecified)
system.caches.L2Cache_Controller.SS.L1_GETS |     1902538     12.57%     12.57% |     1899315     12.55%     25.12% |     1900772     12.56%     37.67% |     1892863     12.50%     50.18% |     1883210     12.44%     62.62% |     1894886     12.52%     75.14% |     1875421     12.39%     87.53% |     1888317     12.47%    100.00% (Unspecified)
system.caches.L2Cache_Controller.SS.L1_GETS::total     15137322                       (Unspecified)
system.caches.L2Cache_Controller.SS.L1_GETX |           7     46.67%     46.67% |           0      0.00%     46.67% |           0      0.00%     46.67% |           0      0.00%     46.67% |           0      0.00%     46.67% |           0      0.00%     46.67% |           8     53.33%    100.00% |           0      0.00%    100.00% (Unspecified)
system.caches.L2Cache_Controller.SS.L1_GETX::total           15                       (Unspecified)
system.caches.L2Cache_Controller.SS.L1_UPGRADE |           1      0.01%      0.01% |        7122     49.76%     49.76% |           1      0.01%     49.77% |           0      0.00%     49.77% |           0      0.00%     49.77% |        7109     49.66%     99.43% |          81      0.57%    100.00% |           0      0.00%    100.00% (Unspecified)
system.caches.L2Cache_Controller.SS.L1_UPGRADE::total        14314                       (Unspecified)
system.caches.L2Cache_Controller.SS.L1_PUTX |           1      8.33%      8.33% |           2     16.67%     25.00% |           2     16.67%     41.67% |           2     16.67%     58.33% |           0      0.00%     58.33% |           2     16.67%     75.00% |           1      8.33%     83.33% |           2     16.67%    100.00% (Unspecified)
system.caches.L2Cache_Controller.SS.L1_PUTX::total           12                       (Unspecified)
system.caches.L2Cache_Controller.SS.L2_Replacement |        3125     12.68%     12.68% |        3079     12.49%     25.17% |        3146     12.77%     37.94% |        3071     12.46%     50.40% |        3083     12.51%     62.91% |        3079     12.49%     75.41% |        3107     12.61%     88.01% |        2954     11.99%    100.00% (Unspecified)
system.caches.L2Cache_Controller.SS.L2_Replacement::total        24644                       (Unspecified)
system.caches.L2Cache_Controller.SS.L2_Replacement_clean |      101390     13.81%     13.81% |       90458     12.32%     26.13% |       89549     12.20%     38.33% |       90759     12.36%     50.69% |       90411     12.31%     63.00% |       90420     12.32%     75.32% |       90247     12.29%     87.61% |       90945     12.39%    100.00% (Unspecified)
system.caches.L2Cache_Controller.SS.L2_Replacement_clean::total       734179                       (Unspecified)
system.caches.L2Cache_Controller.M.L1_GET_INSTR |           0      0.00%      0.00% |           3     33.33%     33.33% |           1     11.11%     44.44% |           0      0.00%     44.44% |           0      0.00%     44.44% |           1     11.11%     55.56% |           1     11.11%     66.67% |           3     33.33%    100.00% (Unspecified)
system.caches.L2Cache_Controller.M.L1_GET_INSTR::total            9                       (Unspecified)
system.caches.L2Cache_Controller.M.L1_GETS |      266325     12.68%     12.68% |      263344     12.54%     25.23% |      261432     12.45%     37.68% |      261339     12.45%     50.13% |      261449     12.45%     62.58% |      263208     12.54%     75.12% |      259676     12.37%     87.48% |      262771     12.52%    100.00% (Unspecified)
system.caches.L2Cache_Controller.M.L1_GETS::total      2099544                       (Unspecified)
system.caches.L2Cache_Controller.M.L1_GETX |         298     23.24%     23.24% |         237     18.49%     41.73% |          17      1.33%     43.06% |          55      4.29%     47.35% |         131     10.22%     57.57% |         225     17.55%     75.12% |         130     10.14%     85.26% |         189     14.74%    100.00% (Unspecified)
system.caches.L2Cache_Controller.M.L1_GETX::total         1282                       (Unspecified)
system.caches.L2Cache_Controller.M.L2_Replacement |       11139     12.48%     12.48% |       11063     12.40%     24.88% |       10610     11.89%     36.77% |       11115     12.46%     49.23% |       11108     12.45%     61.68% |       11555     12.95%     74.63% |       11195     12.55%     87.18% |       11441     12.82%    100.00% (Unspecified)
system.caches.L2Cache_Controller.M.L2_Replacement::total        89226                       (Unspecified)
system.caches.L2Cache_Controller.M.L2_Replacement_clean |      326210     12.13%     12.13% |      337802     12.57%     24.70% |      336894     12.53%     37.23% |      338046     12.57%     49.81% |      337300     12.55%     62.35% |      338486     12.59%     74.94% |      336214     12.51%     87.45% |      337423     12.55%    100.00% (Unspecified)
system.caches.L2Cache_Controller.M.L2_Replacement_clean::total      2688375                       (Unspecified)
system.caches.L2Cache_Controller.MT.L1_GET_INSTR |           0      0.00%      0.00% |           0      0.00%      0.00% |           0      0.00%      0.00% |           0      0.00%      0.00% |           0      0.00%      0.00% |           0      0.00%      0.00% |           1    100.00%    100.00% |           0      0.00%    100.00% (Unspecified)
system.caches.L2Cache_Controller.MT.L1_GET_INSTR::total            1                       (Unspecified)
system.caches.L2Cache_Controller.MT.L1_GETS |      115924     13.46%     13.46% |      111525     12.95%     26.41% |      103636     12.03%     38.44% |      104961     12.19%     50.62% |      104401     12.12%     62.75% |      111600     12.96%     75.70% |      104455     12.13%     87.83% |      104834     12.17%    100.00% (Unspecified)
system.caches.L2Cache_Controller.MT.L1_GETS::total       861336                       (Unspecified)
system.caches.L2Cache_Controller.MT.L1_GETX |           8      0.06%      0.06% |         148      1.14%      1.20% |           0      0.00%      1.20% |       12629     97.47%     98.67% |           0      0.00%     98.67% |         165      1.27%     99.95% |           7      0.05%    100.00% |           0      0.00%    100.00% (Unspecified)
system.caches.L2Cache_Controller.MT.L1_GETX::total        12957                       (Unspecified)
system.caches.L2Cache_Controller.MT.L1_PUTX |      609704     12.37%     12.37% |      618534     12.55%     24.93% |      615171     12.48%     37.41% |      616755     12.52%     49.93% |      616139     12.50%     62.43% |      619696     12.58%     75.01% |      613364     12.45%     87.46% |      618004     12.54%    100.00% (Unspecified)
system.caches.L2Cache_Controller.MT.L1_PUTX::total      4927367                       (Unspecified)
system.caches.L2Cache_Controller.MT.L2_Replacement |          88     22.22%     22.22% |         108     27.27%     49.49% |          27      6.82%     56.31% |          26      6.57%     62.88% |          23      5.81%     68.69% |          72     18.18%     86.87% |          21      5.30%     92.17% |          31      7.83%    100.00% (Unspecified)
system.caches.L2Cache_Controller.MT.L2_Replacement::total          396                       (Unspecified)
system.caches.L2Cache_Controller.MT.L2_Replacement_clean |        2345     11.36%     11.36% |        2595     12.57%     23.94% |        2574     12.47%     36.41% |        2690     13.03%     49.45% |        2612     12.66%     62.10% |        2602     12.61%     74.71% |        2646     12.82%     87.53% |        2573     12.47%    100.00% (Unspecified)
system.caches.L2Cache_Controller.MT.L2_Replacement_clean::total        20637                       (Unspecified)
system.caches.L2Cache_Controller.M_I.L1_GET_INSTR |           0      0.00%      0.00% |           0      0.00%      0.00% |           5     35.71%     35.71% |           4     28.57%     64.29% |           0      0.00%     64.29% |           0      0.00%     64.29% |           5     35.71%    100.00% |           0      0.00%    100.00% (Unspecified)
system.caches.L2Cache_Controller.M_I.L1_GET_INSTR::total           14                       (Unspecified)
system.caches.L2Cache_Controller.M_I.L1_GETS |          20     38.46%     38.46% |           8     15.38%     53.85% |           9     17.31%     71.15% |           2      3.85%     75.00% |           3      5.77%     80.77% |           5      9.62%     90.38% |           2      3.85%     94.23% |           3      5.77%    100.00% (Unspecified)
system.caches.L2Cache_Controller.M_I.L1_GETS::total           52                       (Unspecified)
system.caches.L2Cache_Controller.M_I.L1_GETX |           1    100.00%    100.00% |           0      0.00%    100.00% |           0      0.00%    100.00% |           0      0.00%    100.00% |           0      0.00%    100.00% |           0      0.00%    100.00% |           0      0.00%    100.00% |           0      0.00%    100.00% (Unspecified)
system.caches.L2Cache_Controller.M_I.L1_GETX::total            1                       (Unspecified)
system.caches.L2Cache_Controller.M_I.Mem_Ack |      444297     12.49%     12.49% |      445105     12.51%     25.00% |      442800     12.45%     37.45% |      445707     12.53%     49.98% |      444537     12.50%     62.47% |      446214     12.54%     75.02% |      443430     12.46%     87.48% |      445367     12.52%    100.00% (Unspecified)
system.caches.L2Cache_Controller.M_I.Mem_Ack::total      3557457                       (Unspecified)
system.caches.L2Cache_Controller.MT_I.WB_Data |          55     29.10%     29.10% |          84     44.44%     73.54% |           1      0.53%     74.07% |           0      0.00%     74.07% |           2      1.06%     75.13% |          38     20.11%     95.24% |           3      1.59%     96.83% |           6      3.17%    100.00% (Unspecified)
system.caches.L2Cache_Controller.MT_I.WB_Data::total          189                       (Unspecified)
system.caches.L2Cache_Controller.MT_I.Ack_all |          33     15.94%     15.94% |          24     11.59%     27.54% |          26     12.56%     40.10% |          26     12.56%     52.66% |          21     10.14%     62.80% |          34     16.43%     79.23% |          18      8.70%     87.92% |          25     12.08%    100.00% (Unspecified)
system.caches.L2Cache_Controller.MT_I.Ack_all::total          207                       (Unspecified)
system.caches.L2Cache_Controller.MCT_I.L1_PUTX_old |           0      0.00%      0.00% |           0      0.00%      0.00% |           0      0.00%      0.00% |           1     33.33%     33.33% |           0      0.00%     33.33% |           1     33.33%     66.67% |           1     33.33%    100.00% |           0      0.00%    100.00% (Unspecified)
system.caches.L2Cache_Controller.MCT_I.L1_PUTX_old::total            3                       (Unspecified)
system.caches.L2Cache_Controller.MCT_I.WB_Data |          96     24.49%     24.49% |          81     20.66%     45.15% |          38      9.69%     54.85% |          35      8.93%     63.78% |          45     11.48%     75.26% |           3      0.77%     76.02% |          43     10.97%     86.99% |          51     13.01%    100.00% (Unspecified)
system.caches.L2Cache_Controller.MCT_I.WB_Data::total          392                       (Unspecified)
system.caches.L2Cache_Controller.MCT_I.WB_Data_clean |           0      0.00%      0.00% |           0      0.00%      0.00% |           0      0.00%      0.00% |           1     33.33%     33.33% |           0      0.00%     33.33% |           1     33.33%     66.67% |           1     33.33%    100.00% |           0      0.00%    100.00% (Unspecified)
system.caches.L2Cache_Controller.MCT_I.WB_Data_clean::total            3                       (Unspecified)
system.caches.L2Cache_Controller.MCT_I.Ack_all |        2249     11.11%     11.11% |        2514     12.42%     23.53% |        2536     12.53%     36.06% |        2654     13.11%     49.17% |        2567     12.68%     61.85% |        2598     12.83%     74.69% |        2602     12.85%     87.54% |        2522     12.46%    100.00% (Unspecified)
system.caches.L2Cache_Controller.MCT_I.Ack_all::total        20242                       (Unspecified)
system.caches.L2Cache_Controller.I_I.L1_GETS |           2     28.57%     28.57% |           1     14.29%     42.86% |           0      0.00%     42.86% |           2     28.57%     71.43% |           0      0.00%     71.43% |           0      0.00%     71.43% |           1     14.29%     85.71% |           1     14.29%    100.00% (Unspecified)
system.caches.L2Cache_Controller.I_I.L1_GETS::total            7                       (Unspecified)
system.caches.L2Cache_Controller.I_I.Ack |      322816     12.78%     12.78% |      314763     12.46%     25.24% |      312242     12.36%     37.59% |      315669     12.49%     50.09% |      315159     12.47%     62.56% |      314723     12.46%     75.02% |      313861     12.42%     87.44% |      317293     12.56%    100.00% (Unspecified)
system.caches.L2Cache_Controller.I_I.Ack::total      2526526                       (Unspecified)
system.caches.L2Cache_Controller.I_I.Ack_all |      101390     13.81%     13.81% |       90458     12.32%     26.13% |       89549     12.20%     38.33% |       90759     12.36%     50.69% |       90411     12.31%     63.00% |       90420     12.32%     75.32% |       90247     12.29%     87.61% |       90945     12.39%    100.00% (Unspecified)
system.caches.L2Cache_Controller.I_I.Ack_all::total       734179                       (Unspecified)
system.caches.L2Cache_Controller.S_I.Ack |       14572     12.95%     12.95% |       13922     12.38%     25.33% |       14308     12.72%     38.05% |       13989     12.44%     50.48% |       14036     12.48%     62.96% |       14038     12.48%     75.44% |       14294     12.71%     88.15% |       13332     11.85%    100.00% (Unspecified)
system.caches.L2Cache_Controller.S_I.Ack::total       112491                       (Unspecified)
system.caches.L2Cache_Controller.S_I.Ack_all |        3125     12.68%     12.68% |        3079     12.49%     25.17% |        3146     12.77%     37.94% |        3071     12.46%     50.40% |        3083     12.51%     62.91% |        3079     12.49%     75.41% |        3107     12.61%     88.01% |        2954     11.99%    100.00% (Unspecified)
system.caches.L2Cache_Controller.S_I.Ack_all::total        24644                       (Unspecified)
system.caches.L2Cache_Controller.ISS.L1_GETS |         271     21.01%     21.01% |         198     15.35%     36.36% |         177     13.72%     50.08% |         109      8.45%     58.53% |         128      9.92%     68.45% |         162     12.56%     81.01% |          87      6.74%     87.75% |         158     12.25%    100.00% (Unspecified)
system.caches.L2Cache_Controller.ISS.L1_GETS::total         1290                       (Unspecified)
system.caches.L2Cache_Controller.ISS.L1_GETX |           0      0.00%      0.00% |           0      0.00%      0.00% |           0      0.00%      0.00% |           0      0.00%      0.00% |           0      0.00%      0.00% |           0      0.00%      0.00% |           1    100.00%    100.00% |           0      0.00%    100.00% (Unspecified)
system.caches.L2Cache_Controller.ISS.L1_GETX::total            1                       (Unspecified)
system.caches.L2Cache_Controller.ISS.Mem_Data |      459337     12.48%     12.48% |      460281     12.51%     24.99% |      458469     12.46%     37.45% |      461355     12.54%     49.98% |      459911     12.50%     62.48% |      461327     12.54%     75.01% |      458915     12.47%     87.48% |      460585     12.52%    100.00% (Unspecified)
system.caches.L2Cache_Controller.ISS.Mem_Data::total      3680180                       (Unspecified)
system.caches.L2Cache_Controller.IS.L1_GET_INSTR |         690     12.36%     12.36% |         819     14.67%     27.04% |         641     11.49%     38.52% |         556      9.96%     48.49% |         793     14.21%     62.69% |         785     14.07%     76.76% |         662     11.86%     88.62% |         635     11.38%    100.00% (Unspecified)
system.caches.L2Cache_Controller.IS.L1_GET_INSTR::total         5581                       (Unspecified)
system.caches.L2Cache_Controller.IS.L1_GETS |         200     32.05%     32.05% |         105     16.83%     48.88% |          73     11.70%     60.58% |          41      6.57%     67.15% |          55      8.81%     75.96% |         106     16.99%     92.95% |           6      0.96%     93.91% |          38      6.09%    100.00% (Unspecified)
system.caches.L2Cache_Controller.IS.L1_GETS::total          624                       (Unspecified)
system.caches.L2Cache_Controller.IS.Mem_Data |         705     14.17%     14.17% |         710     14.27%     28.45% |         651     13.09%     41.54% |         439      8.83%     50.36% |         610     12.26%     62.63% |         641     12.89%     75.51% |         540     10.86%     86.37% |         678     13.63%    100.00% (Unspecified)
system.caches.L2Cache_Controller.IS.Mem_Data::total         4974                       (Unspecified)
system.caches.L2Cache_Controller.IM.Mem_Data |         638     19.02%     19.02% |         496     14.79%     33.81% |          61      1.82%     35.63% |         295      8.80%     44.42% |         397     11.84%     56.26% |         624     18.60%     74.87% |         358     10.67%     85.54% |         485     14.46%    100.00% (Unspecified)
system.caches.L2Cache_Controller.IM.Mem_Data::total         3354                       (Unspecified)
system.caches.L2Cache_Controller.SS_MB.L1_GETS |           0      0.00%      0.00% |           5      3.18%      3.18% |           0      0.00%      3.18% |           0      0.00%      3.18% |           0      0.00%      3.18% |           5      3.18%      6.37% |         147     93.63%    100.00% |           0      0.00%    100.00% (Unspecified)
system.caches.L2Cache_Controller.SS_MB.L1_GETS::total          157                       (Unspecified)
system.caches.L2Cache_Controller.SS_MB.L1_GETX |           0      0.00%      0.00% |           3     42.86%     42.86% |           0      0.00%     42.86% |           0      0.00%     42.86% |           0      0.00%     42.86% |           4     57.14%    100.00% |           0      0.00%    100.00% |           0      0.00%    100.00% (Unspecified)
system.caches.L2Cache_Controller.SS_MB.L1_GETX::total            7                       (Unspecified)
system.caches.L2Cache_Controller.SS_MB.L1_UPGRADE |           0      0.00%      0.00% |          29     52.73%     52.73% |           0      0.00%     52.73% |           0      0.00%     52.73% |           0      0.00%     52.73% |          26     47.27%    100.00% |           0      0.00%    100.00% |           0      0.00%    100.00% (Unspecified)
system.caches.L2Cache_Controller.SS_MB.L1_UPGRADE::total           55                       (Unspecified)
system.caches.L2Cache_Controller.SS_MB.Exclusive_Unblock |           8      0.06%      0.06% |        7122     49.70%     49.76% |           1      0.01%     49.77% |           0      0.00%     49.77% |           0      0.00%     49.77% |        7109     49.61%     99.38% |          89      0.62%    100.00% |           0      0.00%    100.00% (Unspecified)
system.caches.L2Cache_Controller.SS_MB.Exclusive_Unblock::total        14329                       (Unspecified)
system.caches.L2Cache_Controller.MT_MB.L1_GETS |          10      8.40%      8.40% |          20     16.81%     25.21% |          23     19.33%     44.54% |          20     16.81%     61.34% |           9      7.56%     68.91% |          15     12.61%     81.51% |           5      4.20%     85.71% |          17     14.29%    100.00% (Unspecified)
system.caches.L2Cache_Controller.MT_MB.L1_GETS::total          119                       (Unspecified)
system.caches.L2Cache_Controller.MT_MB.L1_GETX |           0      0.00%      0.00% |           7     18.92%     18.92% |           0      0.00%     18.92% |          25     67.57%     86.49% |           0      0.00%     86.49% |           5     13.51%    100.00% |           0      0.00%    100.00% |           0      0.00%    100.00% (Unspecified)
system.caches.L2Cache_Controller.MT_MB.L1_GETX::total           37                       (Unspecified)
system.caches.L2Cache_Controller.MT_MB.Exclusive_Unblock |      726605     12.53%     12.53% |      724506     12.50%     25.03% |      719979     12.42%     37.45% |      735673     12.69%     50.14% |      721888     12.45%     62.59% |      725549     12.52%     75.11% |      719086     12.40%     87.51% |      724030     12.49%    100.00% (Unspecified)
system.caches.L2Cache_Controller.MT_MB.Exclusive_Unblock::total      5797316                       (Unspecified)
system.caches.L2Cache_Controller.MT_IIB.L1_GET_INSTR |           0      0.00%      0.00% |           0      0.00%      0.00% |           0      0.00%      0.00% |           0      0.00%      0.00% |           0      0.00%      0.00% |           0      0.00%      0.00% |           5    100.00%    100.00% |           0      0.00%    100.00% (Unspecified)
system.caches.L2Cache_Controller.MT_IIB.L1_GET_INSTR::total            5                       (Unspecified)
system.caches.L2Cache_Controller.MT_IIB.L1_GETS |          23     10.41%     10.41% |          27     12.22%     22.62% |          17      7.69%     30.32% |          11      4.98%     35.29% |           6      2.71%     38.01% |          16      7.24%     45.25% |         108     48.87%     94.12% |          13      5.88%    100.00% (Unspecified)
system.caches.L2Cache_Controller.MT_IIB.L1_GETS::total          221                       (Unspecified)
system.caches.L2Cache_Controller.MT_IIB.L1_PUTX |           1      8.33%      8.33% |           2     16.67%     25.00% |           2     16.67%     41.67% |           2     16.67%     58.33% |           0      0.00%     58.33% |           2     16.67%     75.00% |           1      8.33%     83.33% |           2     16.67%    100.00% (Unspecified)
system.caches.L2Cache_Controller.MT_IIB.L1_PUTX::total           12                       (Unspecified)
system.caches.L2Cache_Controller.MT_IIB.WB_Data |         173      1.13%      1.13% |        7181     46.75%     47.87% |         144      0.94%     48.81% |         159      1.04%     49.85% |         137      0.89%     50.74% |        7204     46.90%     97.64% |         239      1.56%     99.19% |         124      0.81%    100.00% (Unspecified)
system.caches.L2Cache_Controller.MT_IIB.WB_Data::total        15361                       (Unspecified)
system.caches.L2Cache_Controller.MT_IIB.WB_Data_clean |      115741     13.68%     13.68% |      104331     12.33%     26.02% |      103482     12.23%     38.25% |      104793     12.39%     50.64% |      104257     12.33%     62.96% |      104387     12.34%     75.30% |      104211     12.32%     87.62% |      104696     12.38%    100.00% (Unspecified)
system.caches.L2Cache_Controller.MT_IIB.WB_Data_clean::total       845898                       (Unspecified)
system.caches.L2Cache_Controller.MT_IIB.Unblock |          10     12.82%     12.82% |          13     16.67%     29.49% |          10     12.82%     42.31% |           9     11.54%     53.85% |           7      8.97%     62.82% |           9     11.54%     74.36% |           6      7.69%     82.05% |          14     17.95%    100.00% (Unspecified)
system.caches.L2Cache_Controller.MT_IIB.Unblock::total           78                       (Unspecified)
system.caches.L2Cache_Controller.MT_IB.WB_Data |           0      0.00%      0.00% |           1     20.00%     20.00% |           0      0.00%     20.00% |           0      0.00%     20.00% |           0      0.00%     20.00% |           4     80.00%    100.00% |           0      0.00%    100.00% |           0      0.00%    100.00% (Unspecified)
system.caches.L2Cache_Controller.MT_IB.WB_Data::total            5                       (Unspecified)
system.caches.L2Cache_Controller.MT_IB.WB_Data_clean |          10     13.70%     13.70% |          12     16.44%     30.14% |          10     13.70%     43.84% |           9     12.33%     56.16% |           7      9.59%     65.75% |           5      6.85%     72.60% |           6      8.22%     80.82% |          14     19.18%    100.00% (Unspecified)
system.caches.L2Cache_Controller.MT_IB.WB_Data_clean::total           73                       (Unspecified)
system.caches.L2Cache_Controller.MT_SB.L1_GETS |          11     26.83%     26.83% |          11     26.83%     53.66% |           4      9.76%     63.41% |           2      4.88%     68.29% |           4      9.76%     78.05% |           2      4.88%     82.93% |           5     12.20%     95.12% |           2      4.88%    100.00% (Unspecified)
system.caches.L2Cache_Controller.MT_SB.L1_GETS::total           41                       (Unspecified)
system.caches.L2Cache_Controller.MT_SB.L1_UPGRADE |           0      0.00%      0.00% |          11     22.45%     22.45% |           0      0.00%     22.45% |           0      0.00%     22.45% |           0      0.00%     22.45% |           8     16.33%     38.78% |          30     61.22%    100.00% |           0      0.00%    100.00% (Unspecified)
system.caches.L2Cache_Controller.MT_SB.L1_UPGRADE::total           49                       (Unspecified)
system.caches.L2Cache_Controller.MT_SB.Unblock |      115914     13.46%     13.46% |      111512     12.95%     26.41% |      103626     12.03%     38.44% |      104952     12.19%     50.62% |      104394     12.12%     62.75% |      111591     12.96%     75.70% |      104450     12.13%     87.83% |      104820     12.17%    100.00% (Unspecified)
system.caches.L2Cache_Controller.MT_SB.Unblock::total       861259                       (Unspecified)
system.caches.RequestType.LD.latency_hist_seqr::bucket_size          512                       (Unspecified)
system.caches.RequestType.LD.latency_hist_seqr::max_bucket         5119                       (Unspecified)
system.caches.RequestType.LD.latency_hist_seqr::samples     52460848                       (Unspecified)
system.caches.RequestType.LD.latency_hist_seqr::mean    46.546437                       (Unspecified)
system.caches.RequestType.LD.latency_hist_seqr::gmean     4.861761                       (Unspecified)
system.caches.RequestType.LD.latency_hist_seqr::stdev   148.003332                       (Unspecified)
system.caches.RequestType.LD.latency_hist_seqr |    51184319     97.57%     97.57% |     1209045      2.30%     99.87% |       15639      0.03%     99.90% |        3193      0.01%     99.91% |       39442      0.08%     99.98% |        9050      0.02%    100.00% |         155      0.00%    100.00% |           5      0.00%    100.00% |           0      0.00%    100.00% |           0      0.00%    100.00% (Unspecified)
system.caches.RequestType.LD.latency_hist_seqr::total     52460848                       (Unspecified)
system.caches.RequestType.LD.hit_latency_hist_seqr::bucket_size            1                       (Unspecified)
system.caches.RequestType.LD.hit_latency_hist_seqr::max_bucket            9                       (Unspecified)
system.caches.RequestType.LD.hit_latency_hist_seqr::samples     30679263                       (Unspecified)
system.caches.RequestType.LD.hit_latency_hist_seqr::mean     1.129982                       (Unspecified)
system.caches.RequestType.LD.hit_latency_hist_seqr::gmean     1.082185                       (Unspecified)
system.caches.RequestType.LD.hit_latency_hist_seqr::stdev     0.444730                       (Unspecified)
system.caches.RequestType.LD.hit_latency_hist_seqr |           0      0.00%      0.00% |    27801864     90.62%     90.62% |     1943093      6.33%     96.95% |      770995      2.51%     99.47% |      150733      0.49%     99.96% |       12433      0.04%    100.00% |         145      0.00%    100.00% |           0      0.00%    100.00% |           0      0.00%    100.00% |           0      0.00%    100.00% (Unspecified)
system.caches.RequestType.LD.hit_latency_hist_seqr::total     30679263                       (Unspecified)
system.caches.RequestType.LD.miss_latency_hist_seqr::bucket_size          512                       (Unspecified)
system.caches.RequestType.LD.miss_latency_hist_seqr::max_bucket         5119                       (Unspecified)
system.caches.RequestType.LD.miss_latency_hist_seqr::samples     21781585                       (Unspecified)
system.caches.RequestType.LD.miss_latency_hist_seqr::mean   110.515307                       (Unspecified)
system.caches.RequestType.LD.miss_latency_hist_seqr::gmean    40.348355                       (Unspecified)
system.caches.RequestType.LD.miss_latency_hist_seqr::stdev   213.917101                       (Unspecified)
system.caches.RequestType.LD.miss_latency_hist_seqr |    20505056     94.14%     94.14% |     1209045      5.55%     99.69% |       15639      0.07%     99.76% |        3193      0.01%     99.78% |       39442      0.18%     99.96% |        9050      0.04%    100.00% |         155      0.00%    100.00% |           5      0.00%    100.00% |           0      0.00%    100.00% |           0      0.00%    100.00% (Unspecified)
system.caches.RequestType.LD.miss_latency_hist_seqr::total     21781585                       (Unspecified)
system.caches.RequestType.ST.latency_hist_seqr::bucket_size          512                       (Unspecified)
system.caches.RequestType.ST.latency_hist_seqr::max_bucket         5119                       (Unspecified)
system.caches.RequestType.ST.latency_hist_seqr::samples       994420                       (Unspecified)
system.caches.RequestType.ST.latency_hist_seqr::mean     2.238898                       (Unspecified)
system.caches.RequestType.ST.latency_hist_seqr::gmean     1.081997                       (Unspecified)
system.caches.RequestType.ST.latency_hist_seqr::stdev    25.811817                       (Unspecified)
system.caches.RequestType.ST.latency_hist_seqr |      993844     99.94%     99.94% |         451      0.05%     99.99% |          91      0.01%    100.00% |          15      0.00%    100.00% |          16      0.00%    100.00% |           3      0.00%    100.00% |           0      0.00%    100.00% |           0      0.00%    100.00% |           0      0.00%    100.00% |           0      0.00%    100.00% (Unspecified)
system.caches.RequestType.ST.latency_hist_seqr::total       994420                       (Unspecified)
system.caches.RequestType.ST.hit_latency_hist_seqr::bucket_size          256                       (Unspecified)
system.caches.RequestType.ST.hit_latency_hist_seqr::max_bucket         2559                       (Unspecified)
system.caches.RequestType.ST.hit_latency_hist_seqr::samples       977222                       (Unspecified)
system.caches.RequestType.ST.hit_latency_hist_seqr::mean     1.057649                       (Unspecified)
system.caches.RequestType.ST.hit_latency_hist_seqr::gmean     1.022687                       (Unspecified)
system.caches.RequestType.ST.hit_latency_hist_seqr::stdev     4.208912                       (Unspecified)
[...]
system.o3Cpu7.iew.squashCycles                 148591                       # Number of cycles IEW is squashing (Cycle)
system.o3Cpu7.iew.blockCycles                14717563                       # Number of cycles IEW is blocking (Cycle)
system.o3Cpu7.iew.unblockCycles              11107028                       # Number of cycles IEW is unblocking (Cycle)
system.o3Cpu7.iew.dispatchedInsts            44354219                       # Number of instructions dispatched to IQ (Count)
system.o3Cpu7.iew.dispSquashedInsts             20453                       # Number of squashed instructions skipped by dispatch (Count)
system.o3Cpu7.iew.dispLoadInsts               8482682                       # Number of dispatched load instructions (Count)
system.o3Cpu7.iew.dispStoreInsts               250691                       # Number of dispatched store instructions (Count)
system.o3Cpu7.iew.dispNonSpecInsts               2983                       # Number of dispatched non-speculative instructions (Count)
system.o3Cpu7.iew.iqFullEvents                  47324                       # Number of times the IQ has become full, causing a stall (Count)
system.o3Cpu7.iew.lsqFullEvents              11012414                       # Number of times the LSQ has become full, causing a stall (Count)
system.o3Cpu7.iew.memOrderViolationEvents         9858                       # Number of memory order violations (Count)
system.o3Cpu7.iew.predictedTakenIncorrect       102182                       # Number of branches that were predicted taken incorrectly (Count)
system.o3Cpu7.iew.predictedNotTakenIncorrect        48701                       # Number of branches that were predicted not taken incorrectly (Count)
system.o3Cpu7.iew.branchMispredicts            150883                       # Number of branch mispredicts detected at execute (Count)
system.o3Cpu7.iew.instsToCommit              39142791                       # Cumulative count of insts sent to commit (Count)
system.o3Cpu7.iew.writebackCount             39090859                       # Cumulative count of insts written-back (Count)
system.o3Cpu7.iew.producerInst               32947647                       # Number of instructions producing a value (Count)
system.o3Cpu7.iew.consumerInst               46884953                       # Number of instructions consuming a value (Count)
system.o3Cpu7.iew.wbRate                     0.419877                       # Insts written-back per cycle ((Count/Cycle))
system.o3Cpu7.iew.wbFanout                   0.702734                       # Average fanout of values written-back ((Count/Count))
system.o3Cpu7.interrupts.clk_domain.clock         3200                       # Clock period in ticks (Tick)
system.o3Cpu7.lsq0.forwLoads                     5864                       # Number of loads that had data forwarded from stores (Count)
system.o3Cpu7.lsq0.squashedLoads              1766292                       # Number of loads squashed (Count)
system.o3Cpu7.lsq0.ignoredResponses                14                       # Number of memory responses ignored because the instruction is squashed (Count)
system.o3Cpu7.lsq0.memOrderViolation             9858                       # Number of memory ordering violations (Count)
system.o3Cpu7.lsq0.squashedStores              117755                       # Number of stores squashed (Count)
system.o3Cpu7.lsq0.rescheduledLoads                19                       # Number of loads that were rescheduled (Count)
system.o3Cpu7.lsq0.blockedByCache             1805821                       # Number of times an access to memory failed due to the cache being blocked (Count)
system.o3Cpu7.lsq0.loadToUse::samples         6716342                       # Distribution of cycle latency between the first time a load is issued and its completion (Unspecified)
system.o3Cpu7.lsq0.loadToUse::mean         248.904664                       # Distribution of cycle latency between the first time a load is issued and its completion (Unspecified)
system.o3Cpu7.lsq0.loadToUse::stdev        327.577494                       # Distribution of cycle latency between the first time a load is issued and its completion (Unspecified)
system.o3Cpu7.lsq0.loadToUse::0-9             1441518     21.46%     21.46% # Distribution of cycle latency between the first time a load is issued and its completion (Unspecified)
system.o3Cpu7.lsq0.loadToUse::10-19            435207      6.48%     27.94% # Distribution of cycle latency between the first time a load is issued and its completion (Unspecified)
system.o3Cpu7.lsq0.loadToUse::20-29            495639      7.38%     35.32% # Distribution of cycle latency between the first time a load is issued and its completion (Unspecified)
system.o3Cpu7.lsq0.loadToUse::30-39            405024      6.03%     41.35% # Distribution of cycle latency between the first time a load is issued and its completion (Unspecified)
system.o3Cpu7.lsq0.loadToUse::40-49            356761      5.31%     46.66% # Distribution of cycle latency between the first time a load is issued and its completion (Unspecified)
system.o3Cpu7.lsq0.loadToUse::50-59            266693      3.97%     50.64% # Distribution of cycle latency between the first time a load is issued and its completion (Unspecified)
system.o3Cpu7.lsq0.loadToUse::60-69            160791      2.39%     53.03% # Distribution of cycle latency between the first time a load is issued and its completion (Unspecified)
system.o3Cpu7.lsq0.loadToUse::70-79             81428      1.21%     54.24% # Distribution of cycle latency between the first time a load is issued and its completion (Unspecified)
system.o3Cpu7.lsq0.loadToUse::80-89             42192      0.63%     54.87% # Distribution of cycle latency between the first time a load is issued and its completion (Unspecified)
system.o3Cpu7.lsq0.loadToUse::90-99             28771      0.43%     55.30% # Distribution of cycle latency between the first time a load is issued and its completion (Unspecified)
system.o3Cpu7.lsq0.loadToUse::100-109           22667      0.34%     55.64% # Distribution of cycle latency between the first time a load is issued and its completion (Unspecified)
system.o3Cpu7.lsq0.loadToUse::110-119           21053      0.31%     55.95% # Distribution of cycle latency between the first time a load is issued and its completion (Unspecified)
system.o3Cpu7.lsq0.loadToUse::120-129           18870      0.28%     56.23% # Distribution of cycle latency between the first time a load is issued and its completion (Unspecified)
system.o3Cpu7.lsq0.loadToUse::130-139           18231      0.27%     56.50% # Distribution of cycle latency between the first time a load is issued and its completion (Unspecified)
system.o3Cpu7.lsq0.loadToUse::140-149           18353      0.27%     56.77% # Distribution of cycle latency between the first time a load is issued and its completion (Unspecified)
system.o3Cpu7.lsq0.loadToUse::150-159           17718      0.26%     57.04% # Distribution of cycle latency between the first time a load is issued and its completion (Unspecified)
system.o3Cpu7.lsq0.loadToUse::160-169           17230      0.26%     57.30% # Distribution of cycle latency between the first time a load is issued and its completion (Unspecified)
system.o3Cpu7.lsq0.loadToUse::170-179           16619      0.25%     57.54% # Distribution of cycle latency between the first time a load is issued and its completion (Unspecified)
system.o3Cpu7.lsq0.loadToUse::180-189           16553      0.25%     57.79% # Distribution of cycle latency between the first time a load is issued and its completion (Unspecified)
system.o3Cpu7.lsq0.loadToUse::190-199           16202      0.24%     58.03% # Distribution of cycle latency between the first time a load is issued and its completion (Unspecified)
system.o3Cpu7.lsq0.loadToUse::200-209           16005      0.24%     58.27% # Distribution of cycle latency between the first time a load is issued and its completion (Unspecified)
system.o3Cpu7.lsq0.loadToUse::210-219           16188      0.24%     58.51% # Distribution of cycle latency between the first time a load is issued and its completion (Unspecified)
system.o3Cpu7.lsq0.loadToUse::220-229           16328      0.24%     58.75% # Distribution of cycle latency between the first time a load is issued and its completion (Unspecified)
system.o3Cpu7.lsq0.loadToUse::230-239           16378      0.24%     59.00% # Distribution of cycle latency between the first time a load is issued and its completion (Unspecified)
system.o3Cpu7.lsq0.loadToUse::240-249           16132      0.24%     59.24% # Distribution of cycle latency between the first time a load is issued and its completion (Unspecified)
system.o3Cpu7.lsq0.loadToUse::250-259           16933      0.25%     59.49% # Distribution of cycle latency between the first time a load is issued and its completion (Unspecified)
system.o3Cpu7.lsq0.loadToUse::260-269           18072      0.27%     59.76% # Distribution of cycle latency between the first time a load is issued and its completion (Unspecified)
system.o3Cpu7.lsq0.loadToUse::270-279           19237      0.29%     60.04% # Distribution of cycle latency between the first time a load is issued and its completion (Unspecified)
system.o3Cpu7.lsq0.loadToUse::280-289           20404      0.30%     60.35% # Distribution of cycle latency between the first time a load is issued and its completion (Unspecified)
system.o3Cpu7.lsq0.loadToUse::290-299           21880      0.33%     60.67% # Distribution of cycle latency between the first time a load is issued and its completion (Unspecified)
system.o3Cpu7.lsq0.loadToUse::overflows       2641265     39.33%    100.00% # Distribution of cycle latency between the first time a load is issued and its completion (Unspecified)
system.o3Cpu7.lsq0.loadToUse::min_value             2                       # Distribution of cycle latency between the first time a load is issued and its completion (Unspecified)
system.o3Cpu7.lsq0.loadToUse::max_value          3905                       # Distribution of cycle latency between the first time a load is issued and its completion (Unspecified)
system.o3Cpu7.lsq0.loadToUse::total           6716342                       # Distribution of cycle latency between the first time a load is issued and its completion (Unspecified)
system.o3Cpu7.mmu.dtb.rdAccesses              8021361                       # TLB accesses on read requests (Count)
system.o3Cpu7.mmu.dtb.wrAccesses               159264                       # TLB accesses on write requests (Count)
system.o3Cpu7.mmu.dtb.rdMisses                 457758                       # TLB misses on read requests (Count)
system.o3Cpu7.mmu.dtb.wrMisses                  10810                       # TLB misses on write requests (Count)
system.o3Cpu7.mmu.dtb.walker.power_state.pwrStateResidencyTicks::UNDEFINED  19632569800                       # Cumulative time (in ticks) in various power states (Tick)
system.o3Cpu7.mmu.itb.rdAccesses                    0                       # TLB accesses on read requests (Count)
system.o3Cpu7.mmu.itb.wrAccesses               763807                       # TLB accesses on write requests (Count)
system.o3Cpu7.mmu.itb.rdMisses                      0                       # TLB misses on read requests (Count)
system.o3Cpu7.mmu.itb.wrMisses                    123                       # TLB misses on write requests (Count)
system.o3Cpu7.mmu.itb.walker.power_state.pwrStateResidencyTicks::UNDEFINED  19632569800                       # Cumulative time (in ticks) in various power states (Tick)
system.o3Cpu7.power_state.pwrStateResidencyTicks::OFF  19632569800                       # Cumulative time (in ticks) in various power states (Tick)
system.o3Cpu7.rename.squashCycles              148591                       # Number of cycles rename is squashing (Cycle)
system.o3Cpu7.rename.idleCycles               2354367                       # Number of cycles rename is idle (Cycle)
system.o3Cpu7.rename.blockCycles             37215138                       # Number of cycles rename is blocking (Cycle)
system.o3Cpu7.rename.serializeStallCycles       206397                       # count of cycles rename stalled for serializing inst (Cycle)
system.o3Cpu7.rename.runCycles                2834296                       # Number of cycles rename is running (Cycle)
system.o3Cpu7.rename.unblockCycles           45569285                       # Number of cycles rename is unblocking (Cycle)
system.o3Cpu7.rename.renamedInsts            46275935                       # Number of instructions processed by rename (Count)
system.o3Cpu7.rename.ROBFullEvents             512751                       # Number of times rename has blocked due to ROB full (Count)
system.o3Cpu7.rename.IQFullEvents             6529671                       # Number of times rename has blocked due to IQ full (Count)
system.o3Cpu7.rename.LQFullEvents            43773716                       # Number of times rename has blocked due to LQ full (Count)
system.o3Cpu7.rename.SQFullEvents                 523                       # Number of times rename has blocked due to SQ full (Count)
system.o3Cpu7.rename.renamedOperands         84734308                       # Number of destination operands rename has renamed (Count)
system.o3Cpu7.rename.lookups                149363026                       # Number of register rename lookups that rename has made (Count)
system.o3Cpu7.rename.intLookups              44580261                       # Number of integer rename lookups (Count)
system.o3Cpu7.rename.fpLookups               16820519                       # Number of floating rename lookups (Count)
system.o3Cpu7.rename.committedMaps           64056293                       # Number of HB maps that are committed (Count)
system.o3Cpu7.rename.undoneMaps              20677556                       # Number of HB maps that are undone due to squashing (Count)
system.o3Cpu7.rename.serializing                  999                       # count of serializing insts renamed (Count)
system.o3Cpu7.rename.tempSerializing             1065                       # count of temporary serializing insts renamed (Count)
system.o3Cpu7.rename.skidInsts               13932485                       # count of insts added to the skid buffer (Count)
system.o3Cpu7.rob.reads                     131865275                       # The number of ROB reads (Count)
system.o3Cpu7.rob.writes                     89423248                       # The number of ROB writes (Count)
system.o3Cpu7.thread_0.numInsts              17678574                       # Number of Instructions committed (Count)
system.o3Cpu7.thread_0.numOps                34549573                       # Number of Ops committed (Count)
system.o3Cpu7.thread_0.numMemRefs                   0                       # Number of Memory References (Count)
system.pc.bad_addr.power_state.pwrStateResidencyTicks::UNDEFINED  19632569800                       # Cumulative time (in ticks) in various power states (Tick)
system.pc.com_1.power_state.pwrStateResidencyTicks::UNDEFINED  19632569800                       # Cumulative time (in ticks) in various power states (Tick)
system.pc.default_bus.power_state.pwrStateResidencyTicks::UNDEFINED  19632569800                       # Cumulative time (in ticks) in various power states (Tick)
system.pc.empty_isa.power_state.pwrStateResidencyTicks::UNDEFINED  19632569800                       # Cumulative time (in ticks) in various power states (Tick)
system.pc.fake_com_2.power_state.pwrStateResidencyTicks::UNDEFINED  19632569800                       # Cumulative time (in ticks) in various power states (Tick)
system.pc.fake_com_3.power_state.pwrStateResidencyTicks::UNDEFINED  19632569800                       # Cumulative time (in ticks) in various power states (Tick)
system.pc.fake_com_4.power_state.pwrStateResidencyTicks::UNDEFINED  19632569800                       # Cumulative time (in ticks) in various power states (Tick)
system.pc.fake_floppy.power_state.pwrStateResidencyTicks::UNDEFINED  19632569800                       # Cumulative time (in ticks) in various power states (Tick)
system.pc.pci_host.power_state.pwrStateResidencyTicks::UNDEFINED  19632569800                       # Cumulative time (in ticks) in various power states (Tick)
system.pc.south_bridge.cmos.power_state.pwrStateResidencyTicks::UNDEFINED  19632569800                       # Cumulative time (in ticks) in various power states (Tick)
system.pc.south_bridge.dma1.power_state.pwrStateResidencyTicks::UNDEFINED  19632569800                       # Cumulative time (in ticks) in various power states (Tick)
system.pc.south_bridge.ide.disks0.IdeDisk.dmaReadFullPages            0                       # Number of full page size DMA reads (not PRD). (Count)
system.pc.south_bridge.ide.disks0.IdeDisk.dmaReadBytes            0                       # Number of bytes transfered via DMA reads (not PRD). (Byte)
system.pc.south_bridge.ide.disks0.IdeDisk.dmaReadTxs            0                       # Number of DMA read transactions (not PRD). (Count)
system.pc.south_bridge.ide.disks0.IdeDisk.dmaWriteFullPages            0                       # Number of full page size DMA writes. (Count)
system.pc.south_bridge.ide.disks0.IdeDisk.dmaWriteBytes            0                       # Number of bytes transfered via DMA writes. (Byte)
system.pc.south_bridge.ide.disks0.IdeDisk.dmaWriteTxs            0                       # Number of DMA write transactions. (Count)
system.pc.south_bridge.ide.disks1.IdeDisk.dmaReadFullPages            0                       # Number of full page size DMA reads (not PRD). (Count)
system.pc.south_bridge.ide.disks1.IdeDisk.dmaReadBytes            0                       # Number of bytes transfered via DMA reads (not PRD). (Byte)
system.pc.south_bridge.ide.disks1.IdeDisk.dmaReadTxs            0                       # Number of DMA read transactions (not PRD). (Count)
system.pc.south_bridge.ide.disks1.IdeDisk.dmaWriteFullPages            0                       # Number of full page size DMA writes. (Count)
system.pc.south_bridge.ide.disks1.IdeDisk.dmaWriteBytes            0                       # Number of bytes transfered via DMA writes. (Byte)
system.pc.south_bridge.ide.disks1.IdeDisk.dmaWriteTxs            0                       # Number of DMA write transactions. (Count)
system.pc.south_bridge.ide.power_state.pwrStateResidencyTicks::UNDEFINED  19632569800                       # Cumulative time (in ticks) in various power states (Tick)
system.pc.south_bridge.io_apic.power_state.pwrStateResidencyTicks::UNDEFINED  19632569800                       # Cumulative time (in ticks) in various power states (Tick)
system.pc.south_bridge.keyboard.power_state.pwrStateResidencyTicks::UNDEFINED  19632569800                       # Cumulative time (in ticks) in various power states (Tick)
system.pc.south_bridge.pic1.power_state.pwrStateResidencyTicks::UNDEFINED  19632569800                       # Cumulative time (in ticks) in various power states (Tick)
system.pc.south_bridge.pic2.power_state.pwrStateResidencyTicks::UNDEFINED  19632569800                       # Cumulative time (in ticks) in various power states (Tick)
system.pc.south_bridge.pit.power_state.pwrStateResidencyTicks::UNDEFINED  19632569800                       # Cumulative time (in ticks) in various power states (Tick)
system.pc.south_bridge.speaker.power_state.pwrStateResidencyTicks::UNDEFINED  19632569800                       # Cumulative time (in ticks) in various power states (Tick)
system.workload.inst.arm                            0                       # number of arm instructions executed (Count)
system.workload.inst.quiesce                        0                       # number of quiesce instructions executed (Count)

---------- End Simulation Statistics   ----------
