
---------- Begin Simulation Statistics ----------
simSeconds                                   0.046910                       # Number of seconds simulated (Second)
simTicks                                  46910293040                       # Number of ticks simulated (Tick)
finalTick                                21716205107800                       # Number of ticks from beginning of simulation (restored from checkpoints and never reset) (Tick)
simFreq                                  1000000000000                       # The number of ticks per simulated second ((Tick/Second))
hostSeconds                                   7905.46                       # Real time elapsed on the host (Second)
hostTickRate                                  5933907                       # The number of ticks simulated per host second (ticks/s) ((Tick/Second))
hostMemory                                   19893100                       # Number of bytes of host memory used (Byte)
simInsts                                     63104427                       # Number of instructions simulated (Count)
simOps                                      102808714                       # Number of ops (including micro ops) simulated (Count)
hostInstRate                                     7982                       # Simulator instruction rate (inst/s) ((Count/Second))
hostOpRate                                      13005                       # Simulator op (including micro ops) rate (op/s) ((Count/Second))
system.caches.delayHistogram::bucket_size            8                       # delay histogram for all message (Unspecified)
system.caches.delayHistogram::max_bucket           79                       # delay histogram for all message (Unspecified)
system.caches.delayHistogram::samples        38895610                       # delay histogram for all message (Unspecified)
system.caches.delayHistogram::mean           0.739166                       # delay histogram for all message (Unspecified)
system.caches.delayHistogram::stdev          2.369271                       # delay histogram for all message (Unspecified)
system.caches.delayHistogram             |    35963532     92.46%     92.46% |     2872446      7.39%     99.85% |       57551      0.15%     99.99% |        1963      0.01%    100.00% |         100      0.00%    100.00% |          13      0.00%    100.00% |           4      0.00%    100.00% |           1      0.00%    100.00% |           0      0.00%    100.00% |           0      0.00%    100.00% # delay histogram for all message (Unspecified)
system.caches.delayHistogram::total          38895610                       # delay histogram for all message (Unspecified)
system.caches.m_outstandReqHistSeqr::bucket_size            2                       (Unspecified)
system.caches.m_outstandReqHistSeqr::max_bucket           19                       (Unspecified)
system.caches.m_outstandReqHistSeqr::samples     37528764                       (Unspecified)
system.caches.m_outstandReqHistSeqr::mean     4.021932                       (Unspecified)
system.caches.m_outstandReqHistSeqr::gmean     2.621233                       (Unspecified)
system.caches.m_outstandReqHistSeqr::stdev     3.770876                       (Unspecified)
system.caches.m_outstandReqHistSeqr      |    14956449     39.85%     39.85% |     7428580     19.79%     59.65% |     4278622     11.40%     71.05% |     4043545     10.77%     81.82% |     2357141      6.28%     88.10% |     2536696      6.76%     94.86% |      867677      2.31%     97.18% |      409827      1.09%     98.27% |      650227      1.73%    100.00% |           0      0.00%    100.00% (Unspecified)
system.caches.m_outstandReqHistSeqr::total     37528764                       (Unspecified)
system.caches.m_latencyHistSeqr::bucket_size          512                       (Unspecified)
system.caches.m_latencyHistSeqr::max_bucket         5119                       (Unspecified)
system.caches.m_latencyHistSeqr::samples     37533322                       (Unspecified)
system.caches.m_latencyHistSeqr::mean       91.313047                       (Unspecified)
system.caches.m_latencyHistSeqr::gmean       2.579432                       (Unspecified)
system.caches.m_latencyHistSeqr::stdev     246.279247                       (Unspecified)
system.caches.m_latencyHistSeqr          |    34630838     92.27%     92.27% |     2706247      7.21%     99.48% |      104469      0.28%     99.76% |        7191      0.02%     99.77% |       49453      0.13%     99.91% |       33719      0.09%    100.00% |        1339      0.00%    100.00% |          59      0.00%    100.00% |           7      0.00%    100.00% |           0      0.00%    100.00% (Unspecified)
system.caches.m_latencyHistSeqr::total       37533322                       (Unspecified)
system.caches.m_hitLatencyHistSeqr::bucket_size          512                       (Unspecified)
system.caches.m_hitLatencyHistSeqr::max_bucket         5119                       (Unspecified)
system.caches.m_hitLatencyHistSeqr::samples     31920740                       (Unspecified)
system.caches.m_hitLatencyHistSeqr::mean     1.013009                       (Unspecified)
system.caches.m_hitLatencyHistSeqr::gmean     1.004613                       (Unspecified)
system.caches.m_hitLatencyHistSeqr::stdev     2.046521                       (Unspecified)
system.caches.m_hitLatencyHistSeqr       |    31920604    100.00%    100.00% |         126      0.00%    100.00% |           3      0.00%    100.00% |           3      0.00%    100.00% |           3      0.00%    100.00% |           1      0.00%    100.00% |           0      0.00%    100.00% |           0      0.00%    100.00% |           0      0.00%    100.00% |           0      0.00%    100.00% (Unspecified)
system.caches.m_hitLatencyHistSeqr::total     31920740                       (Unspecified)
system.caches.m_missLatencyHistSeqr::bucket_size          512                       (Unspecified)
system.caches.m_missLatencyHistSeqr::max_bucket         5119                       (Unspecified)
system.caches.m_missLatencyHistSeqr::samples      5612582                       (Unspecified)
system.caches.m_missLatencyHistSeqr::mean   604.881316                       (Unspecified)
system.caches.m_missLatencyHistSeqr::gmean   550.351783                       (Unspecified)
system.caches.m_missLatencyHistSeqr::stdev   308.965674                       (Unspecified)
system.caches.m_missLatencyHistSeqr      |     2710234     48.29%     48.29% |     2706121     48.22%     96.50% |      104466      1.86%     98.37% |        7188      0.13%     98.49% |       49450      0.88%     99.37% |       33718      0.60%     99.97% |        1339      0.02%    100.00% |          59      0.00%    100.00% |           7      0.00%    100.00% |           0      0.00%    100.00% (Unspecified)
system.caches.m_missLatencyHistSeqr::total      5612582                       (Unspecified)
system.caches.delayVCHist.vnet_0::bucket_size            8                       # delay histogram for vnet_0 (Unspecified)
system.caches.delayVCHist.vnet_0::max_bucket           79                       # delay histogram for vnet_0 (Unspecified)
system.caches.delayVCHist.vnet_0::samples     16668138                       # delay histogram for vnet_0 (Unspecified)
system.caches.delayVCHist.vnet_0::mean       1.684334                       # delay histogram for vnet_0 (Unspecified)
system.caches.delayVCHist.vnet_0::stdev      3.364726                       # delay histogram for vnet_0 (Unspecified)
system.caches.delayVCHist.vnet_0         |    13746266     82.47%     82.47% |     2862948     17.18%     99.65% |       57048      0.34%     99.99% |        1829      0.01%    100.00% |          43      0.00%    100.00% |           3      0.00%    100.00% |           0      0.00%    100.00% |           1      0.00%    100.00% |           0      0.00%    100.00% |           0      0.00%    100.00% # delay histogram for vnet_0 (Unspecified)
system.caches.delayVCHist.vnet_0::total      16668138                       # delay histogram for vnet_0 (Unspecified)
system.caches.delayVCHist.vnet_1::bucket_size            8                       # delay histogram for vnet_1 (Unspecified)
system.caches.delayVCHist.vnet_1::max_bucket           79                       # delay histogram for vnet_1 (Unspecified)
system.caches.delayVCHist.vnet_1::samples     22165886                       # delay histogram for vnet_1 (Unspecified)
system.caches.delayVCHist.vnet_1::mean       0.030479                       # delay histogram for vnet_1 (Unspecified)
system.caches.delayVCHist.vnet_1::stdev      0.401628                       # delay histogram for vnet_1 (Unspecified)
system.caches.delayVCHist.vnet_1         |    22155680     99.95%     99.95% |        9498      0.04%    100.00% |         503      0.00%    100.00% |         134      0.00%    100.00% |          57      0.00%    100.00% |          10      0.00%    100.00% |           4      0.00%    100.00% |           0      0.00%    100.00% |           0      0.00%    100.00% |           0      0.00%    100.00% # delay histogram for vnet_1 (Unspecified)
system.caches.delayVCHist.vnet_1::total      22165886                       # delay histogram for vnet_1 (Unspecified)
system.caches.delayVCHist.vnet_2::bucket_size            1                       # delay histogram for vnet_2 (Unspecified)
system.caches.delayVCHist.vnet_2::max_bucket            9                       # delay histogram for vnet_2 (Unspecified)
system.caches.delayVCHist.vnet_2::samples        61586                       # delay histogram for vnet_2 (Unspecified)
system.caches.delayVCHist.vnet_2::mean       0.000422                       # delay histogram for vnet_2 (Unspecified)
system.caches.delayVCHist.vnet_2::stdev      0.029055                       # delay histogram for vnet_2 (Unspecified)
system.caches.delayVCHist.vnet_2         |       61573     99.98%     99.98% |           0      0.00%     99.98% |          13      0.02%    100.00% |           0      0.00%    100.00% |           0      0.00%    100.00% |           0      0.00%    100.00% |           0      0.00%    100.00% |           0      0.00%    100.00% |           0      0.00%    100.00% |           0      0.00%    100.00% # delay histogram for vnet_2 (Unspecified)
system.caches.delayVCHist.vnet_2::total         61586                       # delay histogram for vnet_2 (Unspecified)
system.caches.L1Cache_Controller.Load    |      815250     12.90%     12.90% |      777396     12.30%     25.21% |      802059     12.69%     37.90% |      777226     12.30%     50.20% |      775805     12.28%     62.48% |      797842     12.63%     75.10% |      777864     12.31%     87.41% |      795279     12.59%    100.00% (Unspecified)
system.caches.L1Cache_Controller.Load::total      6318721                       (Unspecified)
system.caches.L1Cache_Controller.Ifetch  |     1076177     13.64%     13.64% |      906091     11.48%     25.12% |     1080858     13.70%     38.82% |      972809     12.33%     51.15% |      892284     11.31%     62.46% |     1026303     13.01%     75.47% |      932751     11.82%     87.29% |     1002523     12.71%    100.00% (Unspecified)
system.caches.L1Cache_Controller.Ifetch::total      7889796                       (Unspecified)
system.caches.L1Cache_Controller.Store   |     2948940     12.64%     12.64% |     2905114     12.46%     25.10% |     2926985     12.55%     37.65% |     2904070     12.45%     50.10% |     2896540     12.42%     62.52% |     2905844     12.46%     74.97% |     2921377     12.52%     87.50% |     2915953     12.50%    100.00% (Unspecified)
system.caches.L1Cache_Controller.Store::total     23324823                       (Unspecified)
system.caches.L1Cache_Controller.Inv     |        7370     12.05%     12.05% |        6463     10.57%     22.62% |        6770     11.07%     33.69% |        5434      8.88%     42.57% |        9865     16.13%     58.70% |        9903     16.19%     74.89% |        5700      9.32%     84.21% |        9656     15.79%    100.00% (Unspecified)
system.caches.L1Cache_Controller.Inv::total        61161                       (Unspecified)
system.caches.L1Cache_Controller.L1_Replacement |      696537     12.60%     12.60% |      695150     12.58%     25.18% |      683508     12.37%     37.55% |      688096     12.45%     50.00% |      694258     12.56%     62.57% |      683041     12.36%     74.93% |      697173     12.62%     87.54% |      688434     12.46%    100.00% (Unspecified)
system.caches.L1Cache_Controller.L1_Replacement::total      5526197                       (Unspecified)
system.caches.L1Cache_Controller.Fwd_GETS |         347     81.65%     81.65% |          42      9.88%     91.53% |          10      2.35%     93.88% |           3      0.71%     94.59% |          10      2.35%     96.94% |           8      1.88%     98.82% |           2      0.47%     99.29% |           3      0.71%    100.00% (Unspecified)
system.caches.L1Cache_Controller.Fwd_GETS::total          425                       (Unspecified)
system.caches.L1Cache_Controller.Data    |          75    100.00%    100.00% |           0      0.00%    100.00% |           0      0.00%    100.00% |           0      0.00%    100.00% |           0      0.00%    100.00% |           0      0.00%    100.00% |           0      0.00%    100.00% |           0      0.00%    100.00% (Unspecified)
system.caches.L1Cache_Controller.Data::total           75                       (Unspecified)
system.caches.L1Cache_Controller.Data_Exclusive |      327315     12.33%     12.33% |      338138     12.74%     25.07% |      324275     12.21%     37.28% |      331549     12.49%     49.77% |      338489     12.75%     62.52% |      326430     12.30%     74.82% |      338138     12.74%     87.55% |      330403     12.45%    100.00% (Unspecified)
system.caches.L1Cache_Controller.Data_Exclusive::total      2654737                       (Unspecified)
system.caches.L1Cache_Controller.DataS_fromL1 |          20      4.71%      4.71% |         261     61.41%     66.12% |          62     14.59%     80.71% |          43     10.12%     90.82% |          10      2.35%     93.18% |          10      2.35%     95.53% |          11      2.59%     98.12% |           8      1.88%    100.00% (Unspecified)
system.caches.L1Cache_Controller.DataS_fromL1::total          425                       (Unspecified)
system.caches.L1Cache_Controller.Data_all_Acks |      373529     12.63%     12.63% |      368338     12.46%     25.09% |      370993     12.55%     37.63% |      368210     12.45%     50.08% |      367380     12.42%     62.51% |      368374     12.46%     74.96% |      370641     12.53%     87.50% |      369683     12.50%    100.00% (Unspecified)
system.caches.L1Cache_Controller.Data_all_Acks::total      2957148                       (Unspecified)
system.caches.L1Cache_Controller.Ack     |        1353    100.00%    100.00% |           0      0.00%    100.00% |           0      0.00%    100.00% |           0      0.00%    100.00% |           0      0.00%    100.00% |           0      0.00%    100.00% |           0      0.00%    100.00% |           0      0.00%    100.00% (Unspecified)
system.caches.L1Cache_Controller.Ack::total         1353                       (Unspecified)
system.caches.L1Cache_Controller.Ack_all |         272    100.00%    100.00% |           0      0.00%    100.00% |           0      0.00%    100.00% |           0      0.00%    100.00% |           0      0.00%    100.00% |           0      0.00%    100.00% |           0      0.00%    100.00% |           0      0.00%    100.00% (Unspecified)
system.caches.L1Cache_Controller.Ack_all::total          272                       (Unspecified)
system.caches.L1Cache_Controller.WB_Ack  |      691668     12.62%     12.62% |      690353     12.59%     25.21% |      678962     12.39%     37.60% |      684671     12.49%     50.09% |      686215     12.52%     62.61% |      675325     12.32%     74.93% |      693195     12.65%     87.58% |      680833     12.42%    100.00% (Unspecified)
system.caches.L1Cache_Controller.WB_Ack::total      5481222                       (Unspecified)
system.caches.L1Cache_Controller.NP.Load |      327927     12.32%     12.32% |      339251     12.75%     25.07% |      324947     12.21%     37.27% |      332404     12.49%     49.76% |      339445     12.75%     62.52% |      327116     12.29%     74.81% |      339228     12.75%     87.55% |      331328     12.45%    100.00% (Unspecified)
system.caches.L1Cache_Controller.NP.Load::total      2661646                       (Unspecified)
system.caches.L1Cache_Controller.NP.Ifetch |         959     17.91%     17.91% |         656     12.25%     30.16% |         634     11.84%     42.01% |         660     12.33%     54.33% |         644     12.03%     66.36% |         651     12.16%     78.52% |         644     12.03%     90.55% |         506      9.45%    100.00% (Unspecified)
system.caches.L1Cache_Controller.NP.Ifetch::total         5354                       (Unspecified)
system.caches.L1Cache_Controller.NP.Store |      367884     12.61%     12.61% |      363520     12.46%     25.07% |      366185     12.55%     37.62% |      363313     12.45%     50.08% |      362430     12.42%     62.50% |      363550     12.46%     74.96% |      365551     12.53%     87.49% |      364864     12.51%    100.00% (Unspecified)
system.caches.L1Cache_Controller.NP.Store::total      2917297                       (Unspecified)
system.caches.L1Cache_Controller.NP.Inv  |          52      4.46%      4.46% |         168     14.42%     18.88% |         140     12.02%     30.90% |         163     13.99%     44.89% |         158     13.56%     58.45% |         154     13.22%     71.67% |         168     14.42%     86.09% |         162     13.91%    100.00% (Unspecified)
system.caches.L1Cache_Controller.NP.Inv::total         1165                       (Unspecified)
system.caches.L1Cache_Controller.I.Load  |         544     13.16%     13.16% |         442     10.69%     23.86% |         610     14.76%     38.62% |         527     12.75%     51.37% |         491     11.88%     63.25% |         568     13.74%     76.99% |         468     11.32%     88.31% |         483     11.69%    100.00% (Unspecified)
system.caches.L1Cache_Controller.I.Load::total         4133                       (Unspecified)
system.caches.L1Cache_Controller.I.Ifetch |        3319     14.89%     14.89% |        2699     12.11%     26.99% |        2718     12.19%     39.19% |        2711     12.16%     51.35% |        2701     12.12%     63.46% |        2711     12.16%     75.62% |        2718     12.19%     87.81% |        2717     12.19%    100.00% (Unspecified)
system.caches.L1Cache_Controller.I.Ifetch::total        22294                       (Unspecified)
system.caches.L1Cache_Controller.I.Store |         307     18.33%     18.33% |         172     10.27%     28.60% |         238     14.21%     42.81% |         190     11.34%     54.15% |         170     10.15%     64.30% |         219     13.07%     77.37% |         182     10.87%     88.24% |         197     11.76%    100.00% (Unspecified)
system.caches.L1Cache_Controller.I.Store::total         1675                       (Unspecified)
system.caches.L1Cache_Controller.I.L1_Replacement |        2970      9.71%      9.71% |        2826      9.24%     18.95% |        2915      9.53%     28.47% |        1656      5.41%     33.89% |        6196     20.25%     54.14% |        6079     19.87%     74.01% |        2013      6.58%     80.59% |        5938     19.41%    100.00% (Unspecified)
system.caches.L1Cache_Controller.I.L1_Replacement::total        30593                       (Unspecified)
system.caches.L1Cache_Controller.S.Load  |       17469     11.37%     11.37% |       23566     15.34%     26.72% |       19361     12.61%     39.33% |       22939     14.94%     54.26% |       18488     12.04%     66.30% |       16682     10.86%     77.16% |       17838     11.61%     88.78% |       17235     11.22%    100.00% (Unspecified)
system.caches.L1Cache_Controller.S.Load::total       153578                       (Unspecified)
system.caches.L1Cache_Controller.S.Ifetch |     1071899     13.63%     13.63% |      902736     11.48%     25.12% |     1077506     13.70%     38.82% |      969438     12.33%     51.15% |      888939     11.31%     62.46% |     1022941     13.01%     75.47% |      929389     11.82%     87.29% |      999300     12.71%    100.00% (Unspecified)
system.caches.L1Cache_Controller.S.Ifetch::total      7862148                       (Unspecified)
system.caches.L1Cache_Controller.S.Store |         197    100.00%    100.00% |           0      0.00%    100.00% |           0      0.00%    100.00% |           0      0.00%    100.00% |           0      0.00%    100.00% |           0      0.00%    100.00% |           0      0.00%    100.00% |           0      0.00%    100.00% (Unspecified)
system.caches.L1Cache_Controller.S.Store::total          197                       (Unspecified)
system.caches.L1Cache_Controller.S.Inv   |        3609     14.37%     14.37% |        3070     12.23%     26.60% |        3104     12.36%     38.97% |        3076     12.25%     51.22% |        3050     12.15%     63.36% |        3084     12.28%     75.65% |        3050     12.15%     87.80% |        3064     12.20%    100.00% (Unspecified)
system.caches.L1Cache_Controller.S.Inv::total        25107                       (Unspecified)
system.caches.L1Cache_Controller.S.L1_Replacement |        1899     13.23%     13.23% |        1968     13.71%     26.95% |        1627     11.34%     38.28% |        1763     12.28%     50.57% |        1844     12.85%     63.42% |        1633     11.38%     74.80% |        1960     13.66%     88.45% |        1657     11.55%    100.00% (Unspecified)
system.caches.L1Cache_Controller.S.L1_Replacement::total        14351                       (Unspecified)
system.caches.L1Cache_Controller.E.Load  |      446532     13.18%     13.18% |      401833     11.86%     25.03% |      444411     13.11%     38.15% |      408924     12.07%     50.21% |      405075     11.95%     62.17% |      441290     13.02%     75.19% |      407588     12.03%     87.21% |      433303     12.79%    100.00% (Unspecified)
system.caches.L1Cache_Controller.E.Load::total      3388956                       (Unspecified)
system.caches.L1Cache_Controller.E.Store |         392     17.72%     17.72% |         259     11.71%     29.43% |         254     11.48%     40.91% |         264     11.93%     52.85% |         274     12.39%     65.24% |         234     10.58%     75.81% |         273     12.34%     88.16% |         262     11.84%    100.00% (Unspecified)
system.caches.L1Cache_Controller.E.Store::total         2212                       (Unspecified)
system.caches.L1Cache_Controller.E.Inv   |        2078     13.37%     13.37% |        2205     14.18%     27.55% |        1098      7.06%     34.61% |        1374      8.84%     43.45% |        2037     13.10%     56.55% |        1770     11.38%     67.93% |        1705     10.97%     78.90% |        3281     21.10%    100.00% (Unspecified)
system.caches.L1Cache_Controller.E.Inv::total        15548                       (Unspecified)
system.caches.L1Cache_Controller.E.L1_Replacement |      316633     12.20%     12.20% |      330793     12.75%     24.95% |      318118     12.26%     37.21% |      325080     12.53%     49.74% |      331322     12.77%     62.50% |      319642     12.32%     74.82% |      331382     12.77%     87.59% |      321948     12.41%    100.00% (Unspecified)
system.caches.L1Cache_Controller.E.L1_Replacement::total      2594918                       (Unspecified)
system.caches.L1Cache_Controller.E.Fwd_GETS |          75     49.02%     49.02% |          42     27.45%     76.47% |          10      6.54%     83.01% |           3      1.96%     84.97% |          10      6.54%     91.50% |           8      5.23%     96.73% |           2      1.31%     98.04% |           3      1.96%    100.00% (Unspecified)
system.caches.L1Cache_Controller.E.Fwd_GETS::total          153                       (Unspecified)
system.caches.L1Cache_Controller.M.Load  |       22778     20.63%     20.63% |       12304     11.14%     31.78% |       12730     11.53%     43.31% |       12432     11.26%     54.57% |       12306     11.15%     65.71% |       12186     11.04%     76.75% |       12742     11.54%     88.29% |       12929     11.71%    100.00% (Unspecified)
system.caches.L1Cache_Controller.M.Load::total       110407                       (Unspecified)
system.caches.L1Cache_Controller.M.Store |     2580160     12.65%     12.65% |     2541162     12.45%     25.10% |     2560308     12.55%     37.65% |     2540303     12.45%     50.10% |     2533666     12.42%     62.52% |     2541841     12.46%     74.97% |     2555369     12.52%     87.50% |     2550630     12.50%    100.00% (Unspecified)
system.caches.L1Cache_Controller.M.Store::total     20403439                       (Unspecified)
system.caches.L1Cache_Controller.M.Inv   |        1631      8.44%      8.44% |        1017      5.26%     13.70% |        2424     12.54%     26.25% |         817      4.23%     30.48% |        4618     23.90%     54.37% |        4895     25.33%     79.70% |         775      4.01%     83.71% |        3147     16.29%    100.00% (Unspecified)
system.caches.L1Cache_Controller.M.Inv::total        19324                       (Unspecified)
system.caches.L1Cache_Controller.M.L1_Replacement |      375035     12.99%     12.99% |      359560     12.46%     25.45% |      360844     12.50%     37.95% |      359593     12.46%     50.41% |      354893     12.30%     62.71% |      355683     12.32%     75.03% |      361813     12.54%     87.57% |      358885     12.43%    100.00% (Unspecified)
system.caches.L1Cache_Controller.M.L1_Replacement::total      2886306                       (Unspecified)
system.caches.L1Cache_Controller.M.Fwd_GETS |         272    100.00%    100.00% |           0      0.00%    100.00% |           0      0.00%    100.00% |           0      0.00%    100.00% |           0      0.00%    100.00% |           0      0.00%    100.00% |           0      0.00%    100.00% |           0      0.00%    100.00% (Unspecified)
system.caches.L1Cache_Controller.M.Fwd_GETS::total          272                       (Unspecified)
system.caches.L1Cache_Controller.IS.Inv  |           0      0.00%      0.00% |           3     17.65%     17.65% |           4     23.53%     41.18% |           4     23.53%     64.71% |           2     11.76%     76.47% |           0      0.00%     76.47% |           2     11.76%     88.24% |           2     11.76%    100.00% (Unspecified)
system.caches.L1Cache_Controller.IS.Inv::total           17                       (Unspecified)
system.caches.L1Cache_Controller.IS.L1_Replacement |           0      0.00%      0.00% |           3     11.11%     11.11% |           4     14.81%     25.93% |           4     14.81%     40.74% |           3     11.11%     51.85% |           4     14.81%     66.67% |           3     11.11%     77.78% |           6     22.22%    100.00% (Unspecified)
system.caches.L1Cache_Controller.IS.L1_Replacement::total           27                       (Unspecified)
system.caches.L1Cache_Controller.IS.Data_Exclusive |      327315     12.33%     12.33% |      338138     12.74%     25.07% |      324275     12.21%     37.28% |      331549     12.49%     49.77% |      338489     12.75%     62.52% |      326430     12.30%     74.82% |      338138     12.74%     87.55% |      330403     12.45%    100.00% (Unspecified)
system.caches.L1Cache_Controller.IS.Data_Exclusive::total      2654737                       (Unspecified)
system.caches.L1Cache_Controller.IS.DataS_fromL1 |          20      4.72%      4.72% |         260     61.32%     66.04% |          62     14.62%     80.66% |          43     10.14%     90.80% |          10      2.36%     93.16% |          10      2.36%     95.52% |          11      2.59%     98.11% |           8      1.89%    100.00% (Unspecified)
system.caches.L1Cache_Controller.IS.DataS_fromL1::total          424                       (Unspecified)
system.caches.L1Cache_Controller.IS.Data_all_Acks |        5414     14.16%     14.16% |        4645     12.15%     26.30% |        4567     11.94%     38.24% |        4704     12.30%     50.55% |        4779     12.50%     63.04% |        4606     12.04%     75.09% |        4907     12.83%     87.92% |        4621     12.08%    100.00% (Unspecified)
system.caches.L1Cache_Controller.IS.Data_all_Acks::total        38243                       (Unspecified)
system.caches.L1Cache_Controller.IM.L1_Replacement |           0      0.00%      0.00% |           0      0.00%      0.00% |           0      0.00%      0.00% |           0      0.00%      0.00% |           0      0.00%      0.00% |           0      0.00%      0.00% |           2    100.00%    100.00% |           0      0.00%    100.00% (Unspecified)
system.caches.L1Cache_Controller.IM.L1_Replacement::total            2                       (Unspecified)
system.caches.L1Cache_Controller.IM.Data |          75    100.00%    100.00% |           0      0.00%    100.00% |           0      0.00%    100.00% |           0      0.00%    100.00% |           0      0.00%    100.00% |           0      0.00%    100.00% |           0      0.00%    100.00% |           0      0.00%    100.00% (Unspecified)
system.caches.L1Cache_Controller.IM.Data::total           75                       (Unspecified)
system.caches.L1Cache_Controller.IM.Data_all_Acks |      368115     12.61%     12.61% |      363691     12.46%     25.07% |      366422     12.55%     37.62% |      363502     12.45%     50.08% |      362599     12.42%     62.50% |      363768     12.46%     74.96% |      365732     12.53%     87.49% |      365060     12.51%    100.00% (Unspecified)
system.caches.L1Cache_Controller.IM.Data_all_Acks::total      2918889                       (Unspecified)
system.caches.L1Cache_Controller.SM.Ack  |        1353    100.00%    100.00% |           0      0.00%    100.00% |           0      0.00%    100.00% |           0      0.00%    100.00% |           0      0.00%    100.00% |           0      0.00%    100.00% |           0      0.00%    100.00% |           0      0.00%    100.00% (Unspecified)
system.caches.L1Cache_Controller.SM.Ack::total         1353                       (Unspecified)
system.caches.L1Cache_Controller.SM.Ack_all |         272    100.00%    100.00% |           0      0.00%    100.00% |           0      0.00%    100.00% |           0      0.00%    100.00% |           0      0.00%    100.00% |           0      0.00%    100.00% |           0      0.00%    100.00% |           0      0.00%    100.00% (Unspecified)
system.caches.L1Cache_Controller.SM.Ack_all::total          272                       (Unspecified)
system.caches.L1Cache_Controller.IS_I.DataS_fromL1 |           0      0.00%      0.00% |           1    100.00%    100.00% |           0      0.00%    100.00% |           0      0.00%    100.00% |           0      0.00%    100.00% |           0      0.00%    100.00% |           0      0.00%    100.00% |           0      0.00%    100.00% (Unspecified)
system.caches.L1Cache_Controller.IS_I.DataS_fromL1::total            1                       (Unspecified)
system.caches.L1Cache_Controller.IS_I.Data_all_Acks |           0      0.00%      0.00% |           2     12.50%     12.50% |           4     25.00%     37.50% |           4     25.00%     62.50% |           2     12.50%     75.00% |           0      0.00%     75.00% |           2     12.50%     87.50% |           2     12.50%    100.00% (Unspecified)
system.caches.L1Cache_Controller.IS_I.Data_all_Acks::total           16                       (Unspecified)
system.caches.L1Cache_Controller.M_I.Load |           0      0.00%      0.00% |           0      0.00%      0.00% |           0      0.00%      0.00% |           0      0.00%      0.00% |           0      0.00%      0.00% |           0      0.00%      0.00% |           0      0.00%      0.00% |           1    100.00%    100.00% (Unspecified)
system.caches.L1Cache_Controller.M_I.Load::total            1                       (Unspecified)
system.caches.L1Cache_Controller.M_I.Store |           0      0.00%      0.00% |           1     33.33%     33.33% |           0      0.00%     33.33% |           0      0.00%     33.33% |           0      0.00%     33.33% |           0      0.00%     33.33% |           2     66.67%    100.00% |           0      0.00%    100.00% (Unspecified)
system.caches.L1Cache_Controller.M_I.Store::total            3                       (Unspecified)
system.caches.L1Cache_Controller.M_I.WB_Ack |      691668     12.62%     12.62% |      690353     12.59%     25.21% |      678962     12.39%     37.60% |      684671     12.49%     50.09% |      686215     12.52%     62.61% |      675325     12.32%     74.93% |      693195     12.65%     87.58% |      680833     12.42%    100.00% (Unspecified)
system.caches.L1Cache_Controller.M_I.WB_Ack::total      5481222                       (Unspecified)
system.caches.Directory_Controller.Fetch |        3680      0.07%      0.07% |     5567110     99.93%    100.00% (Unspecified)
system.caches.Directory_Controller.Fetch::total      5570790                       (Unspecified)
system.caches.Directory_Controller.Data  |         182      0.01%      0.01% |     2891656     99.99%    100.00% (Unspecified)
system.caches.Directory_Controller.Data::total      2891838                       (Unspecified)
system.caches.Directory_Controller.Memory_Data |        3680      0.07%      0.07% |     5567098     99.93%    100.00% (Unspecified)
system.caches.Directory_Controller.Memory_Data::total      5570778                       (Unspecified)
system.caches.Directory_Controller.Memory_Ack |         182      0.01%      0.01% |     2891656     99.99%    100.00% (Unspecified)
system.caches.Directory_Controller.Memory_Ack::total      2891838                       (Unspecified)
system.caches.Directory_Controller.CleanReplacement |        3558      0.14%      0.14% |     2544322     99.86%    100.00% (Unspecified)
system.caches.Directory_Controller.CleanReplacement::total      2547880                       (Unspecified)
system.caches.Directory_Controller.I.Fetch |        3680      0.07%      0.07% |     5567110     99.93%    100.00% (Unspecified)
system.caches.Directory_Controller.I.Fetch::total      5570790                       (Unspecified)
system.caches.Directory_Controller.M.Data |         182      0.01%      0.01% |     2891656     99.99%    100.00% (Unspecified)
system.caches.Directory_Controller.M.Data::total      2891838                       (Unspecified)
system.caches.Directory_Controller.M.CleanReplacement |        3558      0.14%      0.14% |     2544322     99.86%    100.00% (Unspecified)
system.caches.Directory_Controller.M.CleanReplacement::total      2547880                       (Unspecified)
system.caches.Directory_Controller.IM.Memory_Data |        3680      0.07%      0.07% |     5567098     99.93%    100.00% (Unspecified)
system.caches.Directory_Controller.IM.Memory_Data::total      5570778                       (Unspecified)
system.caches.Directory_Controller.MI.Memory_Ack |         182      0.01%      0.01% |     2891656     99.99%    100.00% (Unspecified)
system.caches.Directory_Controller.MI.Memory_Ack::total      2891838                       (Unspecified)
system.caches.L2Cache_Controller.L1_GET_INSTR |        3923     14.19%     14.19% |        4257     15.39%     29.58% |        3041     11.00%     40.57% |        2295      8.30%     48.87% |        3268     11.82%     60.69% |        3322     12.01%     72.70% |        3277     11.85%     84.55% |        4272     15.45%    100.00% (Unspecified)
system.caches.L2Cache_Controller.L1_GET_INSTR::total        27655                       (Unspecified)
system.caches.L2Cache_Controller.L1_GETS |      334418     12.54%     12.54% |      333549     12.51%     25.06% |      332857     12.49%     37.54% |      332748     12.48%     50.02% |      332879     12.49%     62.51% |      333038     12.49%     75.00% |      333166     12.50%     87.50% |      333291     12.50%    100.00% (Unspecified)
system.caches.L2Cache_Controller.L1_GETS::total      2665946                       (Unspecified)
system.caches.L2Cache_Controller.L1_GETX |      365147     12.51%     12.51% |      364829     12.50%     25.01% |      364355     12.48%     37.49% |      364706     12.49%     49.98% |      364811     12.50%     62.48% |      365277     12.51%     75.00% |      364862     12.50%     87.50% |      364985     12.50%    100.00% (Unspecified)
system.caches.L2Cache_Controller.L1_GETX::total      2918972                       (Unspecified)
system.caches.L2Cache_Controller.L1_UPGRADE |          37     16.37%     16.37% |          48     21.24%     37.61% |           0      0.00%     37.61% |           0      0.00%     37.61% |           0      0.00%     37.61% |           0      0.00%     37.61% |         141     62.39%    100.00% |           0      0.00%    100.00% (Unspecified)
system.caches.L2Cache_Controller.L1_UPGRADE::total          226                       (Unspecified)
system.caches.L2Cache_Controller.L1_PUTX |      685289     12.50%     12.50% |      685225     12.50%     25.00% |      684732     12.49%     37.50% |      685041     12.50%     49.99% |      685067     12.50%     62.49% |      685420     12.50%     75.00% |      685243     12.50%     87.50% |      685205     12.50%    100.00% (Unspecified)
system.caches.L2Cache_Controller.L1_PUTX::total      5481222                       (Unspecified)
system.caches.L2Cache_Controller.L2_Replacement |      359379     12.50%     12.50% |      359261     12.50%     25.00% |      359097     12.49%     37.50% |      359249     12.50%     49.99% |      359220     12.50%     62.49% |      359453     12.51%     75.00% |      359308     12.50%     87.50% |      359378     12.50%    100.00% (Unspecified)
system.caches.L2Cache_Controller.L2_Replacement::total      2874345                       (Unspecified)
system.caches.L2Cache_Controller.L2_Replacement_clean |      320758     12.50%     12.50% |      320790     12.50%     25.01% |      320311     12.49%     37.49% |      320455     12.49%     49.99% |      320729     12.50%     62.49% |      320933     12.51%     75.00% |      320653     12.50%     87.50% |      320744     12.50%    100.00% (Unspecified)
system.caches.L2Cache_Controller.L2_Replacement_clean::total      2565373                       (Unspecified)
system.caches.L2Cache_Controller.Mem_Data |      696521     12.50%     12.50% |      696433     12.50%     25.00% |      695788     12.49%     37.49% |      696087     12.50%     49.99% |      696331     12.50%     62.49% |      696770     12.51%     75.00% |      696343     12.50%     87.50% |      696505     12.50%    100.00% (Unspecified)
system.caches.L2Cache_Controller.Mem_Data::total      5570778                       (Unspecified)
system.caches.L2Cache_Controller.Mem_Ack |      680137     12.50%     12.50% |      680051     12.50%     25.00% |      679408     12.49%     37.49% |      679704     12.50%     49.99% |      679949     12.50%     62.49% |      680386     12.51%     75.00% |      679961     12.50%     87.50% |      680122     12.50%    100.00% (Unspecified)
system.caches.L2Cache_Controller.Mem_Ack::total      5439718                       (Unspecified)
system.caches.L2Cache_Controller.WB_Data |        2586     13.20%     13.20% |        2361     12.05%     25.24% |        2017     10.29%     35.54% |        2322     11.85%     47.39% |        2275     11.61%     59.00% |        2802     14.30%     73.30% |        2574     13.14%     86.43% |        2659     13.57%    100.00% (Unspecified)
system.caches.L2Cache_Controller.WB_Data::total        19596                       (Unspecified)
system.caches.L2Cache_Controller.WB_Data_clean |          32     20.92%     20.92% |          23     15.03%     35.95% |          19     12.42%     48.37% |          16     10.46%     58.82% |          14      9.15%     67.97% |          14      9.15%     77.12% |          15      9.80%     86.93% |          20     13.07%    100.00% (Unspecified)
system.caches.L2Cache_Controller.WB_Data_clean::total          153                       (Unspecified)
system.caches.L2Cache_Controller.Ack     |        2620     12.41%     12.41% |        2666     12.63%     25.03% |        2656     12.58%     37.61% |        2121     10.04%     47.66% |        2959     14.01%     61.67% |        2969     14.06%     75.73% |        2875     13.62%     89.35% |        2249     10.65%    100.00% (Unspecified)
system.caches.L2Cache_Controller.Ack::total        21115                       (Unspecified)
system.caches.L2Cache_Controller.Ack_all |        2461     12.76%     12.76% |        2594     13.44%     26.20% |        2312     11.98%     38.18% |        2230     11.56%     49.74% |        2545     13.19%     62.93% |        2431     12.60%     75.53% |        2380     12.34%     87.87% |        2341     12.13%    100.00% (Unspecified)
system.caches.L2Cache_Controller.Ack_all::total        19294                       (Unspecified)
system.caches.L2Cache_Controller.Unblock |         129     30.35%     30.35% |          71     16.71%     47.06% |          19      4.47%     51.53% |          16      3.76%     55.29% |          14      3.29%     58.59% |          14      3.29%     61.88% |         142     33.41%     95.29% |          20      4.71%    100.00% (Unspecified)
system.caches.L2Cache_Controller.Unblock::total          425                       (Unspecified)
system.caches.L2Cache_Controller.Exclusive_Unblock |      697078     12.51%     12.51% |      696903     12.50%     25.01% |      695774     12.48%     37.49% |      696398     12.49%     49.99% |      696569     12.50%     62.48% |      697335     12.51%     74.99% |      696900     12.50%     87.50% |      696940     12.50%    100.00% (Unspecified)
system.caches.L2Cache_Controller.Exclusive_Unblock::total      5573897                       (Unspecified)
system.caches.L2Cache_Controller.NP.L1_GET_INSTR |         423     12.24%     12.24% |         433     12.53%     24.76% |         436     12.61%     37.37% |         353     10.21%     47.58% |         468     13.54%     61.12% |         468     13.54%     74.66% |         460     13.31%     87.97% |         416     12.03%    100.00% (Unspecified)
system.caches.L2Cache_Controller.NP.L1_GET_INSTR::total         3457                       (Unspecified)
system.caches.L2Cache_Controller.NP.L1_GETS |      331413     12.50%     12.50% |      331416     12.50%     25.01% |      331051     12.49%     37.50% |      331207     12.50%     49.99% |      331266     12.50%     62.49% |      331472     12.51%     75.00% |      331254     12.50%     87.50% |      331418     12.50%    100.00% (Unspecified)
system.caches.L2Cache_Controller.NP.L1_GETS::total      2650497                       (Unspecified)
system.caches.L2Cache_Controller.NP.L1_GETX |      364685     12.50%     12.50% |      364586     12.50%     25.00% |      364305     12.49%     37.49% |      364528     12.50%     49.99% |      364599     12.50%     62.49% |      364830     12.51%     75.00% |      364631     12.50%     87.50% |      364672     12.50%    100.00% (Unspecified)
system.caches.L2Cache_Controller.NP.L1_GETX::total      2916836                       (Unspecified)
system.caches.L2Cache_Controller.SS.L1_GET_INSTR |        3111     15.06%     15.06% |        3398     16.45%     31.51% |        2227     10.78%     42.28% |        1561      7.56%     49.84% |        2345     11.35%     61.19% |        2258     10.93%     72.12% |        2254     10.91%     83.03% |        3506     16.97%    100.00% (Unspecified)
system.caches.L2Cache_Controller.SS.L1_GET_INSTR::total        20660                       (Unspecified)
system.caches.L2Cache_Controller.SS.L1_GETS |        2346     22.44%     22.44% |        1412     13.51%     35.94% |        1391     13.30%     49.25% |        1024      9.79%     59.04% |        1095     10.47%     69.52% |         949      9.08%     78.59% |         939      8.98%     87.58% |        1299     12.42%    100.00% (Unspecified)
system.caches.L2Cache_Controller.SS.L1_GETS::total        10455                       (Unspecified)
system.caches.L2Cache_Controller.SS.L1_GETX |          60     80.00%     80.00% |           0      0.00%     80.00% |           0      0.00%     80.00% |           0      0.00%     80.00% |           0      0.00%     80.00% |           0      0.00%     80.00% |          15     20.00%    100.00% |           0      0.00%    100.00% (Unspecified)
system.caches.L2Cache_Controller.SS.L1_GETX::total           75                       (Unspecified)
system.caches.L2Cache_Controller.SS.L1_UPGRADE |          37     18.78%     18.78% |          48     24.37%     43.15% |           0      0.00%     43.15% |           0      0.00%     43.15% |           0      0.00%     43.15% |           0      0.00%     43.15% |         112     56.85%    100.00% |           0      0.00%    100.00% (Unspecified)
system.caches.L2Cache_Controller.SS.L1_UPGRADE::total          197                       (Unspecified)
system.caches.L2Cache_Controller.SS.L2_Replacement_clean |         474     12.65%     12.65% |         474     12.65%     25.31% |         476     12.71%     38.01% |         387     10.33%     48.34% |         500     13.35%     61.69% |         497     13.27%     74.96% |         484     12.92%     87.88% |         454     12.12%    100.00% (Unspecified)
system.caches.L2Cache_Controller.SS.L2_Replacement_clean::total         3746                       (Unspecified)
system.caches.L2Cache_Controller.M.L1_GET_INSTR |           1     10.00%     10.00% |           3     30.00%     40.00% |           1     10.00%     50.00% |           0      0.00%     50.00% |           0      0.00%     50.00% |           1     10.00%     60.00% |           2     20.00%     80.00% |           2     20.00%    100.00% (Unspecified)
system.caches.L2Cache_Controller.M.L1_GET_INSTR::total           10                       (Unspecified)
system.caches.L2Cache_Controller.M.L1_GETS |         490     11.42%     11.42% |         620     14.45%     25.87% |         381      8.88%     34.76% |         493     11.49%     46.25% |         499     11.63%     57.88% |         591     13.78%     71.66% |         674     15.71%     87.37% |         542     12.63%    100.00% (Unspecified)
system.caches.L2Cache_Controller.M.L1_GETS::total         4290                       (Unspecified)
system.caches.L2Cache_Controller.M.L1_GETX |         402     19.51%     19.51% |         243     11.80%     31.31% |          50      2.43%     33.74% |         178      8.64%     42.38% |         211     10.24%     52.62% |         447     21.70%     74.32% |         216     10.49%     84.81% |         313     15.19%    100.00% (Unspecified)
system.caches.L2Cache_Controller.M.L1_GETX::total         2060                       (Unspecified)
system.caches.L2Cache_Controller.M.L2_Replacement |      359086     12.50%     12.50% |      359064     12.50%     25.00% |      359049     12.50%     37.50% |      359068     12.50%     50.00% |      359050     12.50%     62.50% |      359070     12.50%     75.00% |      359076     12.50%     87.50% |      359039     12.50%    100.00% (Unspecified)
system.caches.L2Cache_Controller.M.L2_Replacement::total      2872502                       (Unspecified)
system.caches.L2Cache_Controller.M.L2_Replacement_clean |      316101     12.50%     12.50% |      316080     12.50%     25.00% |      316030     12.50%     37.50% |      316084     12.50%     50.00% |      316079     12.50%     62.50% |      316083     12.50%     75.00% |      316058     12.50%     87.50% |      316083     12.50%    100.00% (Unspecified)
system.caches.L2Cache_Controller.M.L2_Replacement_clean::total      2528598                       (Unspecified)
system.caches.L2Cache_Controller.MT.L1_GETS |         129     30.35%     30.35% |          71     16.71%     47.06% |          19      4.47%     51.53% |          16      3.76%     55.29% |          14      3.29%     58.59% |          14      3.29%     61.88% |         142     33.41%     95.29% |          20      4.71%    100.00% (Unspecified)
system.caches.L2Cache_Controller.MT.L1_GETS::total          425                       (Unspecified)
system.caches.L2Cache_Controller.MT.L1_PUTX |      685289     12.50%     12.50% |      685225     12.50%     25.00% |      684732     12.49%     37.50% |      685041     12.50%     49.99% |      685067     12.50%     62.49% |      685420     12.50%     75.00% |      685243     12.50%     87.50% |      685205     12.50%    100.00% (Unspecified)
system.caches.L2Cache_Controller.MT.L1_PUTX::total      5481222                       (Unspecified)
system.caches.L2Cache_Controller.MT.L2_Replacement |         293     15.90%     15.90% |         197     10.69%     26.59% |          48      2.60%     29.19% |         181      9.82%     39.01% |         170      9.22%     48.24% |         383     20.78%     69.02% |         232     12.59%     81.61% |         339     18.39%    100.00% (Unspecified)
system.caches.L2Cache_Controller.MT.L2_Replacement::total         1843                       (Unspecified)
system.caches.L2Cache_Controller.MT.L2_Replacement_clean |        4183     12.66%     12.66% |        4236     12.83%     25.49% |        3805     11.52%     37.01% |        3984     12.06%     49.07% |        4150     12.56%     61.64% |        4353     13.18%     74.82% |        4111     12.45%     87.26% |        4207     12.74%    100.00% (Unspecified)
system.caches.L2Cache_Controller.MT.L2_Replacement_clean::total        33029                       (Unspecified)
system.caches.L2Cache_Controller.M_I.L1_GET_INSTR |           0      0.00%      0.00% |           0      0.00%      0.00% |           0      0.00%      0.00% |           0      0.00%      0.00% |           0      0.00%      0.00% |           3     42.86%     42.86% |           2     28.57%     71.43% |           2     28.57%    100.00% (Unspecified)
system.caches.L2Cache_Controller.M_I.L1_GET_INSTR::total            7                       (Unspecified)
system.caches.L2Cache_Controller.M_I.L1_GETX |           0      0.00%      0.00% |           0      0.00%      0.00% |           0      0.00%      0.00% |           0      0.00%      0.00% |           1    100.00%    100.00% |           0      0.00%    100.00% |           0      0.00%    100.00% |           0      0.00%    100.00% (Unspecified)
system.caches.L2Cache_Controller.M_I.L1_GETX::total            1                       (Unspecified)
system.caches.L2Cache_Controller.M_I.Mem_Ack |      680137     12.50%     12.50% |      680051     12.50%     25.00% |      679408     12.49%     37.49% |      679704     12.50%     49.99% |      679949     12.50%     62.49% |      680386     12.51%     75.00% |      679961     12.50%     87.50% |      680122     12.50%    100.00% (Unspecified)
system.caches.L2Cache_Controller.M_I.Mem_Ack::total      5439718                       (Unspecified)
system.caches.L2Cache_Controller.MT_I.WB_Data |         292     15.95%     15.95% |         194     10.60%     26.54% |          47      2.57%     29.11% |         178      9.72%     38.83% |         168      9.18%     48.01% |         383     20.92%     68.92% |         231     12.62%     81.54% |         338     18.46%    100.00% (Unspecified)
system.caches.L2Cache_Controller.MT_I.WB_Data::total         1831                       (Unspecified)
system.caches.L2Cache_Controller.MT_I.Ack_all |           1      8.33%      8.33% |           3     25.00%     33.33% |           1      8.33%     41.67% |           3     25.00%     66.67% |           2     16.67%     83.33% |           0      0.00%     83.33% |           1      8.33%     91.67% |           1      8.33%    100.00% (Unspecified)
system.caches.L2Cache_Controller.MT_I.Ack_all::total           12                       (Unspecified)
system.caches.L2Cache_Controller.MCT_I.WB_Data |        2197     12.56%     12.56% |        2119     12.11%     24.67% |        1970     11.26%     35.93% |        2144     12.26%     48.19% |        2107     12.04%     60.24% |        2419     13.83%     74.06% |        2216     12.67%     86.73% |        2321     13.27%    100.00% (Unspecified)
system.caches.L2Cache_Controller.MCT_I.WB_Data::total        17493                       (Unspecified)
system.caches.L2Cache_Controller.MCT_I.Ack_all |        1986     12.78%     12.78% |        2117     13.63%     26.41% |        1835     11.81%     38.22% |        1840     11.84%     50.06% |        2043     13.15%     63.21% |        1934     12.45%     75.66% |        1895     12.20%     87.86% |        1886     12.14%    100.00% (Unspecified)
system.caches.L2Cache_Controller.MCT_I.Ack_all::total        15536                       (Unspecified)
system.caches.L2Cache_Controller.I_I.Ack |        2620     12.41%     12.41% |        2666     12.63%     25.03% |        2656     12.58%     37.61% |        2121     10.04%     47.66% |        2959     14.01%     61.67% |        2969     14.06%     75.73% |        2875     13.62%     89.35% |        2249     10.65%    100.00% (Unspecified)
system.caches.L2Cache_Controller.I_I.Ack::total        21115                       (Unspecified)
system.caches.L2Cache_Controller.I_I.Ack_all |         474     12.65%     12.65% |         474     12.65%     25.31% |         476     12.71%     38.01% |         387     10.33%     48.34% |         500     13.35%     61.69% |         497     13.27%     74.96% |         484     12.92%     87.88% |         454     12.12%    100.00% (Unspecified)
system.caches.L2Cache_Controller.I_I.Ack_all::total         3746                       (Unspecified)
system.caches.L2Cache_Controller.ISS.L1_GETS |           9     20.00%     20.00% |           8     17.78%     37.78% |           8     17.78%     55.56% |           7     15.56%     71.11% |           4      8.89%     80.00% |           5     11.11%     91.11% |           0      0.00%     91.11% |           4      8.89%    100.00% (Unspecified)
system.caches.L2Cache_Controller.ISS.L1_GETS::total           45                       (Unspecified)
system.caches.L2Cache_Controller.ISS.Mem_Data |      331404     12.50%     12.50% |      331407     12.50%     25.01% |      331042     12.49%     37.50% |      331199     12.50%     49.99% |      331261     12.50%     62.49% |      331467     12.51%     75.00% |      331253     12.50%     87.50% |      331414     12.50%    100.00% (Unspecified)
system.caches.L2Cache_Controller.ISS.Mem_Data::total      2650447                       (Unspecified)
system.caches.L2Cache_Controller.IS.L1_GET_INSTR |         388     11.02%     11.02% |         423     12.01%     23.03% |         377     10.71%     33.74% |         381     10.82%     44.56% |         455     12.92%     57.48% |         592     16.81%     74.30% |         559     15.88%     90.17% |         346      9.83%    100.00% (Unspecified)
system.caches.L2Cache_Controller.IS.L1_GET_INSTR::total         3521                       (Unspecified)
system.caches.L2Cache_Controller.IS.L1_GETS |          24     36.36%     36.36% |          19     28.79%     65.15% |           7     10.61%     75.76% |           1      1.52%     77.27% |           1      1.52%     78.79% |           6      9.09%     87.88% |           0      0.00%     87.88% |           8     12.12%    100.00% (Unspecified)
system.caches.L2Cache_Controller.IS.L1_GETS::total           66                       (Unspecified)
system.caches.L2Cache_Controller.IS.Mem_Data |         432     12.34%     12.34% |         441     12.59%     24.93% |         444     12.68%     37.61% |         360     10.28%     47.89% |         472     13.48%     61.36% |         473     13.51%     74.87% |         460     13.14%     88.01% |         420     11.99%    100.00% (Unspecified)
system.caches.L2Cache_Controller.IS.Mem_Data::total         3502                       (Unspecified)
system.caches.L2Cache_Controller.IM.Mem_Data |      364685     12.50%     12.50% |      364585     12.50%     25.00% |      364302     12.49%     37.49% |      364528     12.50%     49.99% |      364598     12.50%     62.49% |      364830     12.51%     75.00% |      364630     12.50%     87.50% |      364671     12.50%    100.00% (Unspecified)
system.caches.L2Cache_Controller.IM.Mem_Data::total      2916829                       (Unspecified)
system.caches.L2Cache_Controller.SS_MB.L1_GETS |           0      0.00%      0.00% |           0      0.00%      0.00% |           0      0.00%      0.00% |           0      0.00%      0.00% |           0      0.00%      0.00% |           0      0.00%      0.00% |         116    100.00%    100.00% |           0      0.00%    100.00% (Unspecified)
system.caches.L2Cache_Controller.SS_MB.L1_GETS::total          116                       (Unspecified)
system.caches.L2Cache_Controller.SS_MB.Exclusive_Unblock |          97     35.66%     35.66% |          48     17.65%     53.31% |           0      0.00%     53.31% |           0      0.00%     53.31% |           0      0.00%     53.31% |           0      0.00%     53.31% |         127     46.69%    100.00% |           0      0.00%    100.00% (Unspecified)
system.caches.L2Cache_Controller.SS_MB.Exclusive_Unblock::total          272                       (Unspecified)
system.caches.L2Cache_Controller.MT_MB.Exclusive_Unblock |      696981     12.50%     12.50% |      696855     12.50%     25.01% |      695774     12.48%     37.49% |      696398     12.49%     49.99% |      696569     12.50%     62.48% |      697335     12.51%     74.99% |      696773     12.50%     87.50% |      696940     12.50%    100.00% (Unspecified)
system.caches.L2Cache_Controller.MT_MB.Exclusive_Unblock::total      5573625                       (Unspecified)
system.caches.L2Cache_Controller.MT_IIB.L1_GETS |           7     13.46%     13.46% |           3      5.77%     19.23% |           0      0.00%     19.23% |           0      0.00%     19.23% |           0      0.00%     19.23% |           1      1.92%     21.15% |          41     78.85%    100.00% |           0      0.00%    100.00% (Unspecified)
system.caches.L2Cache_Controller.MT_IIB.L1_GETS::total           52                       (Unspecified)
system.caches.L2Cache_Controller.MT_IIB.WB_Data |          96     35.42%     35.42% |          48     17.71%     53.14% |           0      0.00%     53.14% |           0      0.00%     53.14% |           0      0.00%     53.14% |           0      0.00%     53.14% |         127     46.86%    100.00% |           0      0.00%    100.00% (Unspecified)
system.caches.L2Cache_Controller.MT_IIB.WB_Data::total          271                       (Unspecified)
system.caches.L2Cache_Controller.MT_IIB.WB_Data_clean |          32     20.92%     20.92% |          23     15.03%     35.95% |          19     12.42%     48.37% |          16     10.46%     58.82% |          14      9.15%     67.97% |          14      9.15%     77.12% |          15      9.80%     86.93% |          20     13.07%    100.00% (Unspecified)
system.caches.L2Cache_Controller.MT_IIB.WB_Data_clean::total          153                       (Unspecified)
system.caches.L2Cache_Controller.MT_IIB.Unblock |           1    100.00%    100.00% |           0      0.00%    100.00% |           0      0.00%    100.00% |           0      0.00%    100.00% |           0      0.00%    100.00% |           0      0.00%    100.00% |           0      0.00%    100.00% |           0      0.00%    100.00% (Unspecified)
system.caches.L2Cache_Controller.MT_IIB.Unblock::total            1                       (Unspecified)
system.caches.L2Cache_Controller.MT_IB.WB_Data |           1    100.00%    100.00% |           0      0.00%    100.00% |           0      0.00%    100.00% |           0      0.00%    100.00% |           0      0.00%    100.00% |           0      0.00%    100.00% |           0      0.00%    100.00% |           0      0.00%    100.00% (Unspecified)
system.caches.L2Cache_Controller.MT_IB.WB_Data::total            1                       (Unspecified)
system.caches.L2Cache_Controller.MT_SB.L1_UPGRADE |           0      0.00%      0.00% |           0      0.00%      0.00% |           0      0.00%      0.00% |           0      0.00%      0.00% |           0      0.00%      0.00% |           0      0.00%      0.00% |          29    100.00%    100.00% |           0      0.00%    100.00% (Unspecified)
system.caches.L2Cache_Controller.MT_SB.L1_UPGRADE::total           29                       (Unspecified)
system.caches.L2Cache_Controller.MT_SB.Unblock |         128     30.19%     30.19% |          71     16.75%     46.93% |          19      4.48%     51.42% |          16      3.77%     55.19% |          14      3.30%     58.49% |          14      3.30%     61.79% |         142     33.49%     95.28% |          20      4.72%    100.00% (Unspecified)
system.caches.L2Cache_Controller.MT_SB.Unblock::total          424                       (Unspecified)
system.caches.RequestType.LD.latency_hist_seqr::bucket_size          512                       (Unspecified)
system.caches.RequestType.LD.latency_hist_seqr::max_bucket         5119                       (Unspecified)
system.caches.RequestType.LD.latency_hist_seqr::samples      6318714                       (Unspecified)
system.caches.RequestType.LD.latency_hist_seqr::mean   250.064254                       (Unspecified)
system.caches.RequestType.LD.latency_hist_seqr::gmean    14.237189                       (Unspecified)
system.caches.RequestType.LD.latency_hist_seqr::stdev   350.597157                       (Unspecified)
system.caches.RequestType.LD.latency_hist_seqr |     4937422     78.14%     78.14% |     1295963     20.51%     98.65% |       42289      0.67%     99.32% |        3977      0.06%     99.38% |       23543      0.37%     99.75% |       14898      0.24%     99.99% |         582      0.01%    100.00% |          36      0.00%    100.00% |           4      0.00%    100.00% |           0      0.00%    100.00% (Unspecified)
system.caches.RequestType.LD.latency_hist_seqr::total      6318714                       (Unspecified)
system.caches.RequestType.LD.hit_latency_hist_seqr::bucket_size            1                       (Unspecified)
system.caches.RequestType.LD.hit_latency_hist_seqr::max_bucket            9                       (Unspecified)
system.caches.RequestType.LD.hit_latency_hist_seqr::samples      3652941                       (Unspecified)
system.caches.RequestType.LD.hit_latency_hist_seqr::mean     1.000133                       (Unspecified)
system.caches.RequestType.LD.hit_latency_hist_seqr::gmean     1.000092                       (Unspecified)
system.caches.RequestType.LD.hit_latency_hist_seqr::stdev     0.011546                       (Unspecified)
system.caches.RequestType.LD.hit_latency_hist_seqr |           0      0.00%      0.00% |     3652454     99.99%     99.99% |         487      0.01%    100.00% |           0      0.00%    100.00% |           0      0.00%    100.00% |           0      0.00%    100.00% |           0      0.00%    100.00% |           0      0.00%    100.00% |           0      0.00%    100.00% |           0      0.00%    100.00% (Unspecified)
system.caches.RequestType.LD.hit_latency_hist_seqr::total      3652941                       (Unspecified)
system.caches.RequestType.LD.miss_latency_hist_seqr::bucket_size          512                       (Unspecified)
system.caches.RequestType.LD.miss_latency_hist_seqr::max_bucket         5119                       (Unspecified)
system.caches.RequestType.LD.miss_latency_hist_seqr::samples      2665773                       (Unspecified)
system.caches.RequestType.LD.miss_latency_hist_seqr::mean   591.359833                       (Unspecified)
system.caches.RequestType.LD.miss_latency_hist_seqr::gmean   541.901641                       (Unspecified)
system.caches.RequestType.LD.miss_latency_hist_seqr::stdev   299.779458                       (Unspecified)
system.caches.RequestType.LD.miss_latency_hist_seqr |     1284481     48.18%     48.18% |     1295963     48.61%     96.80% |       42289      1.59%     98.39% |        3977      0.15%     98.53% |       23543      0.88%     99.42% |       14898      0.56%     99.98% |         582      0.02%    100.00% |          36      0.00%    100.00% |           4      0.00%    100.00% |           0      0.00%    100.00% (Unspecified)
system.caches.RequestType.LD.miss_latency_hist_seqr::total      2665773                       (Unspecified)
system.caches.RequestType.ST.latency_hist_seqr::bucket_size          512                       (Unspecified)
system.caches.RequestType.ST.latency_hist_seqr::max_bucket         5119                       (Unspecified)
system.caches.RequestType.ST.latency_hist_seqr::samples     23304340                       (Unspecified)
system.caches.RequestType.ST.latency_hist_seqr::mean    78.794011                       (Unspecified)
system.caches.RequestType.ST.latency_hist_seqr::gmean     2.228672                       (Unspecified)
system.caches.RequestType.ST.latency_hist_seqr::stdev   233.599018                       (Unspecified)
system.caches.RequestType.ST.latency_hist_seqr |    21784070     93.48%     93.48% |     1409457      6.05%     99.52% |       62146      0.27%     99.79% |        3182      0.01%     99.80% |       25889      0.11%     99.92% |       18813      0.08%    100.00% |         757      0.00%    100.00% |          23      0.00%    100.00% |           3      0.00%    100.00% |           0      0.00%    100.00% (Unspecified)
system.caches.RequestType.ST.latency_hist_seqr::total     23304340                       (Unspecified)
system.caches.RequestType.ST.hit_latency_hist_seqr::bucket_size          256                       (Unspecified)
system.caches.RequestType.ST.hit_latency_hist_seqr::max_bucket         2559                       (Unspecified)
system.caches.RequestType.ST.hit_latency_hist_seqr::samples     20387747                       (Unspecified)
system.caches.RequestType.ST.hit_latency_hist_seqr::mean     1.012588                       (Unspecified)
system.caches.RequestType.ST.hit_latency_hist_seqr::gmean     1.007031                       (Unspecified)
system.caches.RequestType.ST.hit_latency_hist_seqr::stdev     1.227897                       (Unspecified)
system.caches.RequestType.ST.hit_latency_hist_seqr |    20387652    100.00%    100.00% |          57      0.00%    100.00% |          26      0.00%    100.00% |          10      0.00%    100.00% |           1      0.00%    100.00% |           0      0.00%    100.00% |           1      0.00%    100.00% |           0      0.00%    100.00% |           0      0.00%    100.00% |           0      0.00%    100.00% (Unspecified)
system.caches.RequestType.ST.hit_latency_hist_seqr::total     20387747                       (Unspecified)
system.caches.RequestType.ST.miss_latency_hist_seqr::bucket_size          512                       (Unspecified)
system.caches.RequestType.ST.miss_latency_hist_seqr::max_bucket         5119                       (Unspecified)
system.caches.RequestType.ST.miss_latency_hist_seqr::samples      2916593                       (Unspecified)
system.caches.RequestType.ST.miss_latency_hist_seqr::mean   622.506478                       (Unspecified)
system.caches.RequestType.ST.miss_latency_hist_seqr::gmean   575.056644                       (Unspecified)
system.caches.RequestType.ST.miss_latency_hist_seqr::stdev   313.196554                       (Unspecified)
system.caches.RequestType.ST.miss_latency_hist_seqr |     1396361     47.88%     47.88% |     1409421     48.32%     96.20% |       62145      2.13%     98.33% |        3181      0.11%     98.44% |       25889      0.89%     99.33% |       18813      0.65%     99.97% |         757      0.03%    100.00% |          23      0.00%    100.00% |           3      0.00%    100.00% |           0      0.00%    100.00% (Unspecified)
system.caches.RequestType.ST.miss_latency_hist_seqr::total      2916593                       (Unspecified)
system.caches.RequestType.IFETCH.latency_hist_seqr::bucket_size          256                       (Unspecified)
system.caches.RequestType.IFETCH.latency_hist_seqr::max_bucket         2559                       (Unspecified)
system.caches.RequestType.IFETCH.latency_hist_seqr::samples      7889796                       (Unspecified)
system.caches.RequestType.IFETCH.latency_hist_seqr::mean     1.266984                       (Unspecified)
system.caches.RequestType.IFETCH.latency_hist_seqr::gmean     1.011705                       (Unspecified)
system.caches.RequestType.IFETCH.latency_hist_seqr::stdev     9.114744                       (Unspecified)
system.caches.RequestType.IFETCH.latency_hist_seqr |     7887705     99.97%     99.97% |        1869      0.02%    100.00% |         122      0.00%    100.00% |          44      0.00%    100.00% |           7      0.00%    100.00% |          15      0.00%    100.00% |          26      0.00%    100.00% |           0      0.00%    100.00% |           8      0.00%    100.00% |           0      0.00%    100.00% (Unspecified)
system.caches.RequestType.IFETCH.latency_hist_seqr::total      7889796                       (Unspecified)
system.caches.RequestType.IFETCH.hit_latency_hist_seqr::bucket_size            1                       (Unspecified)
system.caches.RequestType.IFETCH.hit_latency_hist_seqr::max_bucket            9                       (Unspecified)
system.caches.RequestType.IFETCH.hit_latency_hist_seqr::samples      7862148                       (Unspecified)
system.caches.RequestType.IFETCH.hit_latency_hist_seqr::mean     1.000000                       (Unspecified)
system.caches.RequestType.IFETCH.hit_latency_hist_seqr::gmean     1.000000                       (Unspecified)
system.caches.RequestType.IFETCH.hit_latency_hist_seqr::stdev     0.000357                       (Unspecified)
system.caches.RequestType.IFETCH.hit_latency_hist_seqr |           0      0.00%      0.00% |     7862147    100.00%    100.00% |           1      0.00%    100.00% |           0      0.00%    100.00% |           0      0.00%    100.00% |           0      0.00%    100.00% |           0      0.00%    100.00% |           0      0.00%    100.00% |           0      0.00%    100.00% |           0      0.00%    100.00% (Unspecified)
system.caches.RequestType.IFETCH.hit_latency_hist_seqr::total      7862148                       (Unspecified)
system.caches.RequestType.IFETCH.miss_latency_hist_seqr::bucket_size          256                       (Unspecified)
system.caches.RequestType.IFETCH.miss_latency_hist_seqr::max_bucket         2559                       (Unspecified)
system.caches.RequestType.IFETCH.miss_latency_hist_seqr::samples        27648                       (Unspecified)
system.caches.RequestType.IFETCH.miss_latency_hist_seqr::mean    77.188006                       (Unspecified)
system.caches.RequestType.IFETCH.miss_latency_hist_seqr::gmean    27.684852                       (Unspecified)
system.caches.RequestType.IFETCH.miss_latency_hist_seqr::stdev   133.881143                       (Unspecified)
system.caches.RequestType.IFETCH.miss_latency_hist_seqr |       25557     92.44%     92.44% |        1869      6.76%     99.20% |         122      0.44%     99.64% |          44      0.16%     99.80% |           7      0.03%     99.82% |          15      0.05%     99.88% |          26      0.09%     99.97% |           0      0.00%     99.97% |           8      0.03%    100.00% |           0      0.00%    100.00% (Unspecified)
system.caches.RequestType.IFETCH.miss_latency_hist_seqr::total        27648                       (Unspecified)
system.caches.RequestType.RMW_Read.latency_hist_seqr::bucket_size          512                       (Unspecified)
system.caches.RequestType.RMW_Read.latency_hist_seqr::max_bucket         5119                       (Unspecified)
system.caches.RequestType.RMW_Read.latency_hist_seqr::samples        14904                       (Unspecified)
system.caches.RequestType.RMW_Read.latency_hist_seqr::mean    54.914587                       (Unspecified)
system.caches.RequestType.RMW_Read.latency_hist_seqr::gmean     2.521273                       (Unspecified)
system.caches.RequestType.RMW_Read.latency_hist_seqr::stdev   181.545418                       (Unspecified)
system.caches.RequestType.RMW_Read.latency_hist_seqr |       14314     96.04%     96.04% |         558      3.74%     99.79% |          10      0.07%     99.85% |           5      0.03%     99.89% |          11      0.07%     99.96% |           6      0.04%    100.00% |           0      0.00%    100.00% |           0      0.00%    100.00% |           0      0.00%    100.00% |           0      0.00%    100.00% (Unspecified)
system.caches.RequestType.RMW_Read.latency_hist_seqr::total        14904                       (Unspecified)
system.caches.RequestType.RMW_Read.hit_latency_hist_seqr::bucket_size          512                       (Unspecified)
system.caches.RequestType.RMW_Read.hit_latency_hist_seqr::max_bucket         5119                       (Unspecified)
system.caches.RequestType.RMW_Read.hit_latency_hist_seqr::samples        12753                       (Unspecified)
system.caches.RequestType.RMW_Read.hit_latency_hist_seqr::mean    13.399435                       (Unspecified)
system.caches.RequestType.RMW_Read.hit_latency_hist_seqr::gmean     1.338642                       (Unspecified)
system.caches.RequestType.RMW_Read.hit_latency_hist_seqr::stdev    88.993456                       (Unspecified)
system.caches.RequestType.RMW_Read.hit_latency_hist_seqr |       12655     99.23%     99.23% |          90      0.71%     99.94% |           2      0.02%     99.95% |           2      0.02%     99.97% |           3      0.02%     99.99% |           1      0.01%    100.00% |           0      0.00%    100.00% |           0      0.00%    100.00% |           0      0.00%    100.00% |           0      0.00%    100.00% (Unspecified)
system.caches.RequestType.RMW_Read.hit_latency_hist_seqr::total        12753                       (Unspecified)
system.caches.RequestType.RMW_Read.miss_latency_hist_seqr::bucket_size          512                       (Unspecified)
system.caches.RequestType.RMW_Read.miss_latency_hist_seqr::max_bucket         5119                       (Unspecified)
system.caches.RequestType.RMW_Read.miss_latency_hist_seqr::samples         2151                       (Unspecified)
system.caches.RequestType.RMW_Read.miss_latency_hist_seqr::mean   301.052534                       (Unspecified)
system.caches.RequestType.RMW_Read.miss_latency_hist_seqr::gmean   107.595884                       (Unspecified)
system.caches.RequestType.RMW_Read.miss_latency_hist_seqr::stdev   332.638854                       (Unspecified)
system.caches.RequestType.RMW_Read.miss_latency_hist_seqr |        1659     77.13%     77.13% |         468     21.76%     98.88% |           8      0.37%     99.26% |           3      0.14%     99.40% |           8      0.37%     99.77% |           5      0.23%    100.00% |           0      0.00%    100.00% |           0      0.00%    100.00% |           0      0.00%    100.00% |           0      0.00%    100.00% (Unspecified)
system.caches.RequestType.RMW_Read.miss_latency_hist_seqr::total         2151                       (Unspecified)
system.caches.RequestType.Locked_RMW_Read.latency_hist_seqr::bucket_size          512                       (Unspecified)
system.caches.RequestType.Locked_RMW_Read.latency_hist_seqr::max_bucket         5119                       (Unspecified)
system.caches.RequestType.Locked_RMW_Read.latency_hist_seqr::samples         2784                       (Unspecified)
system.caches.RequestType.Locked_RMW_Read.latency_hist_seqr::mean    49.419181                       (Unspecified)
system.caches.RequestType.Locked_RMW_Read.latency_hist_seqr::gmean     2.035421                       (Unspecified)
system.caches.RequestType.Locked_RMW_Read.latency_hist_seqr::stdev   184.049596                       (Unspecified)
system.caches.RequestType.Locked_RMW_Read.latency_hist_seqr |        2674     96.05%     96.05% |         103      3.70%     99.75% |           2      0.07%     99.82% |           1      0.04%     99.86% |           2      0.07%     99.93% |           2      0.07%    100.00% |           0      0.00%    100.00% |           0      0.00%    100.00% |           0      0.00%    100.00% |           0      0.00%    100.00% (Unspecified)
system.caches.RequestType.Locked_RMW_Read.latency_hist_seqr::total         2784                       (Unspecified)
system.caches.RequestType.Locked_RMW_Read.hit_latency_hist_seqr::bucket_size            1                       (Unspecified)
system.caches.RequestType.Locked_RMW_Read.hit_latency_hist_seqr::max_bucket            9                       (Unspecified)
system.caches.RequestType.Locked_RMW_Read.hit_latency_hist_seqr::samples         2367                       (Unspecified)
system.caches.RequestType.Locked_RMW_Read.hit_latency_hist_seqr::mean            1                       (Unspecified)
system.caches.RequestType.Locked_RMW_Read.hit_latency_hist_seqr::gmean            1                       (Unspecified)
system.caches.RequestType.Locked_RMW_Read.hit_latency_hist_seqr |           0      0.00%      0.00% |        2367    100.00%    100.00% |           0      0.00%    100.00% |           0      0.00%    100.00% |           0      0.00%    100.00% |           0      0.00%    100.00% |           0      0.00%    100.00% |           0      0.00%    100.00% |           0      0.00%    100.00% |           0      0.00%    100.00% (Unspecified)
system.caches.RequestType.Locked_RMW_Read.hit_latency_hist_seqr::total         2367                       (Unspecified)
system.caches.RequestType.Locked_RMW_Read.miss_latency_hist_seqr::bucket_size          512                       (Unspecified)
system.caches.RequestType.Locked_RMW_Read.miss_latency_hist_seqr::max_bucket         5119                       (Unspecified)
system.caches.RequestType.Locked_RMW_Read.miss_latency_hist_seqr::samples          417                       (Unspecified)
system.caches.RequestType.Locked_RMW_Read.miss_latency_hist_seqr::mean   324.258993                       (Unspecified)
system.caches.RequestType.Locked_RMW_Read.miss_latency_hist_seqr::gmean   114.988869                       (Unspecified)
system.caches.RequestType.Locked_RMW_Read.miss_latency_hist_seqr::stdev   370.887436                       (Unspecified)
system.caches.RequestType.Locked_RMW_Read.miss_latency_hist_seqr |         307     73.62%     73.62% |         103     24.70%     98.32% |           2      0.48%     98.80% |           1      0.24%     99.04% |           2      0.48%     99.52% |           2      0.48%    100.00% |           0      0.00%    100.00% |           0      0.00%    100.00% |           0      0.00%    100.00% |           0      0.00%    100.00% (Unspecified)
system.caches.RequestType.Locked_RMW_Read.miss_latency_hist_seqr::total          417                       (Unspecified)
system.caches.RequestType.Locked_RMW_Write.latency_hist_seqr::bucket_size            1                       (Unspecified)
system.caches.RequestType.Locked_RMW_Write.latency_hist_seqr::max_bucket            9                       (Unspecified)
system.caches.RequestType.Locked_RMW_Write.latency_hist_seqr::samples         2784                       (Unspecified)
system.caches.RequestType.Locked_RMW_Write.latency_hist_seqr::mean            1                       (Unspecified)
system.caches.RequestType.Locked_RMW_Write.latency_hist_seqr::gmean            1                       (Unspecified)
[...]
system.o3Cpu7.iew.squashCycles                   5141                       # Number of cycles IEW is squashing (Cycle)
system.o3Cpu7.iew.blockCycles                   61708                       # Number of cycles IEW is blocking (Cycle)
system.o3Cpu7.iew.unblockCycles             123849337                       # Number of cycles IEW is unblocking (Cycle)
system.o3Cpu7.iew.dispatchedInsts            13123863                       # Number of instructions dispatched to IQ (Count)
system.o3Cpu7.iew.dispSquashedInsts              2281                       # Number of squashed instructions skipped by dispatch (Count)
system.o3Cpu7.iew.dispLoadInsts               2682237                       # Number of dispatched load instructions (Count)
system.o3Cpu7.iew.dispStoreInsts              2922655                       # Number of dispatched store instructions (Count)
system.o3Cpu7.iew.dispNonSpecInsts               2037                       # Number of dispatched non-speculative instructions (Count)
system.o3Cpu7.iew.iqFullEvents                    251                       # Number of times the IQ has become full, causing a stall (Count)
system.o3Cpu7.iew.lsqFullEvents             123833694                       # Number of times the LSQ has become full, causing a stall (Count)
system.o3Cpu7.iew.memOrderViolationEvents          756                       # Number of memory order violations (Count)
system.o3Cpu7.iew.predictedTakenIncorrect         3703                       # Number of branches that were predicted taken incorrectly (Count)
system.o3Cpu7.iew.predictedNotTakenIncorrect          727                       # Number of branches that were predicted not taken incorrectly (Count)
system.o3Cpu7.iew.branchMispredicts              4430                       # Number of branch mispredicts detected at execute (Count)
system.o3Cpu7.iew.instsToCommit              13062736                       # Cumulative count of insts sent to commit (Count)
system.o3Cpu7.iew.writebackCount             13062480                       # Cumulative count of insts written-back (Count)
system.o3Cpu7.iew.producerInst                6641895                       # Number of instructions producing a value (Count)
system.o3Cpu7.iew.consumerInst               12656884                       # Number of instructions consuming a value (Count)
system.o3Cpu7.iew.wbRate                     0.055691                       # Insts written-back per cycle ((Count/Cycle))
system.o3Cpu7.iew.wbFanout                   0.524765                       # Average fanout of values written-back ((Count/Count))
system.o3Cpu7.interrupts.clk_domain.clock         3200                       # Clock period in ticks (Tick)
system.o3Cpu7.lsq0.forwLoads                     5237                       # Number of loads that had data forwarded from stores (Count)
system.o3Cpu7.lsq0.squashedLoads                35135                       # Number of loads squashed (Count)
system.o3Cpu7.lsq0.ignoredResponses                12                       # Number of memory responses ignored because the instruction is squashed (Count)
system.o3Cpu7.lsq0.memOrderViolation              756                       # Number of memory ordering violations (Count)
system.o3Cpu7.lsq0.squashedStores                8634                       # Number of stores squashed (Count)
system.o3Cpu7.lsq0.rescheduledLoads                36                       # Number of loads that were rescheduled (Count)
system.o3Cpu7.lsq0.blockedByCache               49208                       # Number of times an access to memory failed due to the cache being blocked (Count)
system.o3Cpu7.lsq0.loadToUse::samples         2647102                       # Distribution of cycle latency between the first time a load is issued and its completion (Unspecified)
system.o3Cpu7.lsq0.loadToUse::mean         379.072472                       # Distribution of cycle latency between the first time a load is issued and its completion (Unspecified)
system.o3Cpu7.lsq0.loadToUse::stdev        358.686492                       # Distribution of cycle latency between the first time a load is issued and its completion (Unspecified)
system.o3Cpu7.lsq0.loadToUse::0-9              760115     28.71%     28.71% # Distribution of cycle latency between the first time a load is issued and its completion (Unspecified)
system.o3Cpu7.lsq0.loadToUse::10-19             21788      0.82%     29.54% # Distribution of cycle latency between the first time a load is issued and its completion (Unspecified)
system.o3Cpu7.lsq0.loadToUse::20-29             12041      0.45%     29.99% # Distribution of cycle latency between the first time a load is issued and its completion (Unspecified)
system.o3Cpu7.lsq0.loadToUse::30-39             17265      0.65%     30.65% # Distribution of cycle latency between the first time a load is issued and its completion (Unspecified)
system.o3Cpu7.lsq0.loadToUse::40-49             15963      0.60%     31.25% # Distribution of cycle latency between the first time a load is issued and its completion (Unspecified)
system.o3Cpu7.lsq0.loadToUse::50-59             12656      0.48%     31.73% # Distribution of cycle latency between the first time a load is issued and its completion (Unspecified)
system.o3Cpu7.lsq0.loadToUse::60-69             10623      0.40%     32.13% # Distribution of cycle latency between the first time a load is issued and its completion (Unspecified)
system.o3Cpu7.lsq0.loadToUse::70-79             10013      0.38%     32.51% # Distribution of cycle latency between the first time a load is issued and its completion (Unspecified)
system.o3Cpu7.lsq0.loadToUse::80-89              9787      0.37%     32.88% # Distribution of cycle latency between the first time a load is issued and its completion (Unspecified)
system.o3Cpu7.lsq0.loadToUse::90-99              9442      0.36%     33.23% # Distribution of cycle latency between the first time a load is issued and its completion (Unspecified)
system.o3Cpu7.lsq0.loadToUse::100-109            8457      0.32%     33.55% # Distribution of cycle latency between the first time a load is issued and its completion (Unspecified)
system.o3Cpu7.lsq0.loadToUse::110-119            6859      0.26%     33.81% # Distribution of cycle latency between the first time a load is issued and its completion (Unspecified)
system.o3Cpu7.lsq0.loadToUse::120-129            6367      0.24%     34.05% # Distribution of cycle latency between the first time a load is issued and its completion (Unspecified)
system.o3Cpu7.lsq0.loadToUse::130-139            6749      0.25%     34.31% # Distribution of cycle latency between the first time a load is issued and its completion (Unspecified)
system.o3Cpu7.lsq0.loadToUse::140-149            6070      0.23%     34.54% # Distribution of cycle latency between the first time a load is issued and its completion (Unspecified)
system.o3Cpu7.lsq0.loadToUse::150-159            5461      0.21%     34.74% # Distribution of cycle latency between the first time a load is issued and its completion (Unspecified)
system.o3Cpu7.lsq0.loadToUse::160-169            4804      0.18%     34.92% # Distribution of cycle latency between the first time a load is issued and its completion (Unspecified)
system.o3Cpu7.lsq0.loadToUse::170-179            3995      0.15%     35.07% # Distribution of cycle latency between the first time a load is issued and its completion (Unspecified)
system.o3Cpu7.lsq0.loadToUse::180-189            3889      0.15%     35.22% # Distribution of cycle latency between the first time a load is issued and its completion (Unspecified)
system.o3Cpu7.lsq0.loadToUse::190-199            3501      0.13%     35.35% # Distribution of cycle latency between the first time a load is issued and its completion (Unspecified)
system.o3Cpu7.lsq0.loadToUse::200-209            3738      0.14%     35.49% # Distribution of cycle latency between the first time a load is issued and its completion (Unspecified)
system.o3Cpu7.lsq0.loadToUse::210-219            3394      0.13%     35.62% # Distribution of cycle latency between the first time a load is issued and its completion (Unspecified)
system.o3Cpu7.lsq0.loadToUse::220-229            3174      0.12%     35.74% # Distribution of cycle latency between the first time a load is issued and its completion (Unspecified)
system.o3Cpu7.lsq0.loadToUse::230-239            2838      0.11%     35.85% # Distribution of cycle latency between the first time a load is issued and its completion (Unspecified)
system.o3Cpu7.lsq0.loadToUse::240-249            2476      0.09%     35.94% # Distribution of cycle latency between the first time a load is issued and its completion (Unspecified)
system.o3Cpu7.lsq0.loadToUse::250-259            2728      0.10%     36.05% # Distribution of cycle latency between the first time a load is issued and its completion (Unspecified)
system.o3Cpu7.lsq0.loadToUse::260-269            2509      0.09%     36.14% # Distribution of cycle latency between the first time a load is issued and its completion (Unspecified)
system.o3Cpu7.lsq0.loadToUse::270-279            2924      0.11%     36.25% # Distribution of cycle latency between the first time a load is issued and its completion (Unspecified)
system.o3Cpu7.lsq0.loadToUse::280-289            3117      0.12%     36.37% # Distribution of cycle latency between the first time a load is issued and its completion (Unspecified)
system.o3Cpu7.lsq0.loadToUse::290-299            2928      0.11%     36.48% # Distribution of cycle latency between the first time a load is issued and its completion (Unspecified)
system.o3Cpu7.lsq0.loadToUse::overflows       1681431     63.52%    100.00% # Distribution of cycle latency between the first time a load is issued and its completion (Unspecified)
system.o3Cpu7.lsq0.loadToUse::min_value             2                       # Distribution of cycle latency between the first time a load is issued and its completion (Unspecified)
system.o3Cpu7.lsq0.loadToUse::max_value          4386                       # Distribution of cycle latency between the first time a load is issued and its completion (Unspecified)
system.o3Cpu7.lsq0.loadToUse::total           2647102                       # Distribution of cycle latency between the first time a load is issued and its completion (Unspecified)
system.o3Cpu7.mmu.dtb.rdAccesses              2671302                       # TLB accesses on read requests (Count)
system.o3Cpu7.mmu.dtb.wrAccesses              2918449                       # TLB accesses on write requests (Count)
system.o3Cpu7.mmu.dtb.rdMisses                   2738                       # TLB misses on read requests (Count)
system.o3Cpu7.mmu.dtb.wrMisses                   2022                       # TLB misses on write requests (Count)
system.o3Cpu7.mmu.dtb.walker.power_state.pwrStateResidencyTicks::UNDEFINED  48924515800                       # Cumulative time (in ticks) in various power states (Tick)
system.o3Cpu7.mmu.itb.rdAccesses                    0                       # TLB accesses on read requests (Count)
system.o3Cpu7.mmu.itb.wrAccesses              1002780                       # TLB accesses on write requests (Count)
system.o3Cpu7.mmu.itb.rdMisses                      0                       # TLB misses on read requests (Count)
system.o3Cpu7.mmu.itb.wrMisses                    111                       # TLB misses on write requests (Count)
system.o3Cpu7.mmu.itb.walker.power_state.pwrStateResidencyTicks::UNDEFINED  48924515800                       # Cumulative time (in ticks) in various power states (Tick)
system.o3Cpu7.power_state.pwrStateResidencyTicks::OFF  48924515800                       # Cumulative time (in ticks) in various power states (Tick)
system.o3Cpu7.rename.squashCycles                5141                       # Number of cycles rename is squashing (Cycle)
system.o3Cpu7.rename.idleCycles                613670                       # Number of cycles rename is idle (Cycle)
system.o3Cpu7.rename.blockCycles            123926287                       # Number of cycles rename is blocking (Cycle)
system.o3Cpu7.rename.serializeStallCycles       431840                       # count of cycles rename stalled for serializing inst (Cycle)
system.o3Cpu7.rename.runCycles                 606613                       # Number of cycles rename is running (Cycle)
system.o3Cpu7.rename.unblockCycles          108189575                       # Number of cycles rename is unblocking (Cycle)
system.o3Cpu7.rename.renamedInsts            13137465                       # Number of instructions processed by rename (Count)
system.o3Cpu7.rename.ROBFullEvents               4404                       # Number of times rename has blocked due to ROB full (Count)
system.o3Cpu7.rename.IQFullEvents               82250                       # Number of times rename has blocked due to IQ full (Count)
system.o3Cpu7.rename.LQFullEvents                9515                       # Number of times rename has blocked due to LQ full (Count)
system.o3Cpu7.rename.SQFullEvents           108103664                       # Number of times rename has blocked due to SQ full (Count)
system.o3Cpu7.rename.renamedOperands         16082107                       # Number of destination operands rename has renamed (Count)
system.o3Cpu7.rename.lookups                 41309167                       # Number of register rename lookups that rename has made (Count)
system.o3Cpu7.rename.intLookups               9033042                       # Number of integer rename lookups (Count)
system.o3Cpu7.rename.fpLookups               12292236                       # Number of floating rename lookups (Count)
system.o3Cpu7.rename.committedMaps           15865027                       # Number of HB maps that are committed (Count)
system.o3Cpu7.rename.undoneMaps                217080                       # Number of HB maps that are undone due to squashing (Count)
system.o3Cpu7.rename.serializing                 2165                       # count of serializing insts renamed (Count)
system.o3Cpu7.rename.tempSerializing             2275                       # count of temporary serializing insts renamed (Count)
system.o3Cpu7.rename.skidInsts                7981008                       # count of insts added to the skid buffer (Count)
system.o3Cpu7.rob.reads                     246820473                       # The number of ROB reads (Count)
system.o3Cpu7.rob.writes                     26258129                       # The number of ROB writes (Count)
system.o3Cpu7.thread_0.numInsts               8033441                       # Number of Instructions committed (Count)
system.o3Cpu7.thread_0.numOps                12999982                       # Number of Ops committed (Count)
system.o3Cpu7.thread_0.numMemRefs                   0                       # Number of Memory References (Count)
system.pc.bad_addr.power_state.pwrStateResidencyTicks::UNDEFINED  48924515800                       # Cumulative time (in ticks) in various power states (Tick)
system.pc.com_1.power_state.pwrStateResidencyTicks::UNDEFINED  48924515800                       # Cumulative time (in ticks) in various power states (Tick)
system.pc.default_bus.power_state.pwrStateResidencyTicks::UNDEFINED  48924515800                       # Cumulative time (in ticks) in various power states (Tick)
system.pc.empty_isa.power_state.pwrStateResidencyTicks::UNDEFINED  48924515800                       # Cumulative time (in ticks) in various power states (Tick)
system.pc.fake_com_2.power_state.pwrStateResidencyTicks::UNDEFINED  48924515800                       # Cumulative time (in ticks) in various power states (Tick)
system.pc.fake_com_3.power_state.pwrStateResidencyTicks::UNDEFINED  48924515800                       # Cumulative time (in ticks) in various power states (Tick)
system.pc.fake_com_4.power_state.pwrStateResidencyTicks::UNDEFINED  48924515800                       # Cumulative time (in ticks) in various power states (Tick)
system.pc.fake_floppy.power_state.pwrStateResidencyTicks::UNDEFINED  48924515800                       # Cumulative time (in ticks) in various power states (Tick)
system.pc.pci_host.power_state.pwrStateResidencyTicks::UNDEFINED  48924515800                       # Cumulative time (in ticks) in various power states (Tick)
system.pc.south_bridge.cmos.power_state.pwrStateResidencyTicks::UNDEFINED  48924515800                       # Cumulative time (in ticks) in various power states (Tick)
system.pc.south_bridge.dma1.power_state.pwrStateResidencyTicks::UNDEFINED  48924515800                       # Cumulative time (in ticks) in various power states (Tick)
system.pc.south_bridge.ide.disks0.IdeDisk.dmaReadFullPages            0                       # Number of full page size DMA reads (not PRD). (Count)
system.pc.south_bridge.ide.disks0.IdeDisk.dmaReadBytes            0                       # Number of bytes transfered via DMA reads (not PRD). (Byte)
system.pc.south_bridge.ide.disks0.IdeDisk.dmaReadTxs            0                       # Number of DMA read transactions (not PRD). (Count)
system.pc.south_bridge.ide.disks0.IdeDisk.dmaWriteFullPages            0                       # Number of full page size DMA writes. (Count)
system.pc.south_bridge.ide.disks0.IdeDisk.dmaWriteBytes            0                       # Number of bytes transfered via DMA writes. (Byte)
system.pc.south_bridge.ide.disks0.IdeDisk.dmaWriteTxs            0                       # Number of DMA write transactions. (Count)
system.pc.south_bridge.ide.disks1.IdeDisk.dmaReadFullPages            0                       # Number of full page size DMA reads (not PRD). (Count)
system.pc.south_bridge.ide.disks1.IdeDisk.dmaReadBytes            0                       # Number of bytes transfered via DMA reads (not PRD). (Byte)
system.pc.south_bridge.ide.disks1.IdeDisk.dmaReadTxs            0                       # Number of DMA read transactions (not PRD). (Count)
system.pc.south_bridge.ide.disks1.IdeDisk.dmaWriteFullPages            0                       # Number of full page size DMA writes. (Count)
system.pc.south_bridge.ide.disks1.IdeDisk.dmaWriteBytes            0                       # Number of bytes transfered via DMA writes. (Byte)
system.pc.south_bridge.ide.disks1.IdeDisk.dmaWriteTxs            0                       # Number of DMA write transactions. (Count)
system.pc.south_bridge.ide.power_state.pwrStateResidencyTicks::UNDEFINED  48924515800                       # Cumulative time (in ticks) in various power states (Tick)
system.pc.south_bridge.io_apic.power_state.pwrStateResidencyTicks::UNDEFINED  48924515800                       # Cumulative time (in ticks) in various power states (Tick)
system.pc.south_bridge.keyboard.power_state.pwrStateResidencyTicks::UNDEFINED  48924515800                       # Cumulative time (in ticks) in various power states (Tick)
system.pc.south_bridge.pic1.power_state.pwrStateResidencyTicks::UNDEFINED  48924515800                       # Cumulative time (in ticks) in various power states (Tick)
system.pc.south_bridge.pic2.power_state.pwrStateResidencyTicks::UNDEFINED  48924515800                       # Cumulative time (in ticks) in various power states (Tick)
system.pc.south_bridge.pit.power_state.pwrStateResidencyTicks::UNDEFINED  48924515800                       # Cumulative time (in ticks) in various power states (Tick)
system.pc.south_bridge.speaker.power_state.pwrStateResidencyTicks::UNDEFINED  48924515800                       # Cumulative time (in ticks) in various power states (Tick)
system.workload.inst.arm                            0                       # number of arm instructions executed (Count)
system.workload.inst.quiesce                        0                       # number of quiesce instructions executed (Count)

---------- End Simulation Statistics   ----------
