
---------- Begin Simulation Statistics ----------
simSeconds                                   0.037741                       # Number of seconds simulated (Second)
simTicks                                  37740982600                       # Number of ticks simulated (Tick)
finalTick                                217941143090000                       # Number of ticks from beginning of simulation (restored from checkpoints and never reset) (Tick)
simFreq                                  1000000000000                       # The number of ticks per simulated second ((Tick/Second))
hostSeconds                                  10497.80                       # Real time elapsed on the host (Second)
hostTickRate                                  3595131                       # The number of ticks simulated per host second (ticks/s) ((Tick/Second))
hostMemory                                   19878740                       # Number of bytes of host memory used (Byte)
simInsts                                    129987513                       # Number of instructions simulated (Count)
simOps                                      224630111                       # Number of ops (including micro ops) simulated (Count)
hostInstRate                                    12382                       # Simulator instruction rate (inst/s) ((Count/Second))
hostOpRate                                      21398                       # Simulator op (including micro ops) rate (op/s) ((Count/Second))
system.caches.delayHistogram::bucket_size           16                       # delay histogram for all message (Unspecified)
system.caches.delayHistogram::max_bucket          159                       # delay histogram for all message (Unspecified)
system.caches.delayHistogram::samples        40353309                       # delay histogram for all message (Unspecified)
system.caches.delayHistogram::mean           0.887272                       # delay histogram for all message (Unspecified)
system.caches.delayHistogram::stdev          3.002968                       # delay histogram for all message (Unspecified)
system.caches.delayHistogram             |    39961636     99.03%     99.03% |      367605      0.91%     99.94% |       23012      0.06%    100.00% |        1034      0.00%    100.00% |          21      0.00%    100.00% |           1      0.00%    100.00% |           0      0.00%    100.00% |           0      0.00%    100.00% |           0      0.00%    100.00% |           0      0.00%    100.00% # delay histogram for all message (Unspecified)
system.caches.delayHistogram::total          40353309                       # delay histogram for all message (Unspecified)
system.caches.m_outstandReqHistSeqr::bucket_size            2                       (Unspecified)
system.caches.m_outstandReqHistSeqr::max_bucket           19                       (Unspecified)
system.caches.m_outstandReqHistSeqr::samples    104332221                       (Unspecified)
system.caches.m_outstandReqHistSeqr::mean     2.202305                       (Unspecified)
system.caches.m_outstandReqHistSeqr::gmean     1.776475                       (Unspecified)
system.caches.m_outstandReqHistSeqr::stdev     1.657855                       (Unspecified)
system.caches.m_outstandReqHistSeqr      |    48912296     46.88%     46.88% |    38051097     36.47%     83.35% |    11517326     11.04%     94.39% |     4100110      3.93%     98.32% |     1457496      1.40%     99.72% |      211300      0.20%     99.92% |       55994      0.05%     99.97% |       21877      0.02%    100.00% |        4725      0.00%    100.00% |           0      0.00%    100.00% (Unspecified)
system.caches.m_outstandReqHistSeqr::total    104332221                       (Unspecified)
system.caches.m_latencyHistSeqr::bucket_size          512                       (Unspecified)
system.caches.m_latencyHistSeqr::max_bucket         5119                       (Unspecified)
system.caches.m_latencyHistSeqr::samples    104334882                       (Unspecified)
system.caches.m_latencyHistSeqr::mean       20.192512                       (Unspecified)
system.caches.m_latencyHistSeqr::gmean       1.378981                       (Unspecified)
system.caches.m_latencyHistSeqr::stdev     108.231933                       (Unspecified)
system.caches.m_latencyHistSeqr          |   103012472     98.73%     98.73% |     1255214      1.20%     99.94% |        6440      0.01%     99.94% |       13526      0.01%     99.95% |       39863      0.04%     99.99% |        7330      0.01%    100.00% |          37      0.00%    100.00% |           0      0.00%    100.00% |           0      0.00%    100.00% |           0      0.00%    100.00% (Unspecified)
system.caches.m_latencyHistSeqr::total      104334882                       (Unspecified)
system.caches.m_hitLatencyHistSeqr::bucket_size          512                       (Unspecified)
system.caches.m_hitLatencyHistSeqr::max_bucket         5119                       (Unspecified)
system.caches.m_hitLatencyHistSeqr::samples     97008197                       (Unspecified)
system.caches.m_hitLatencyHistSeqr::mean     1.007139                       (Unspecified)
system.caches.m_hitLatencyHistSeqr::gmean     1.002840                       (Unspecified)
system.caches.m_hitLatencyHistSeqr::stdev     1.544712                       (Unspecified)
system.caches.m_hitLatencyHistSeqr       |    97007914    100.00%    100.00% |         247      0.00%    100.00% |          29      0.00%    100.00% |           3      0.00%    100.00% |           2      0.00%    100.00% |           1      0.00%    100.00% |           1      0.00%    100.00% |           0      0.00%    100.00% |           0      0.00%    100.00% |           0      0.00%    100.00% (Unspecified)
system.caches.m_hitLatencyHistSeqr::total     97008197                       (Unspecified)
system.caches.m_missLatencyHistSeqr::bucket_size          512                       (Unspecified)
system.caches.m_missLatencyHistSeqr::max_bucket         5119                       (Unspecified)
system.caches.m_missLatencyHistSeqr::samples      7326685                       (Unspecified)
system.caches.m_missLatencyHistSeqr::mean   274.214407                       (Unspecified)
system.caches.m_missLatencyHistSeqr::gmean    93.552957                       (Unspecified)
system.caches.m_missLatencyHistSeqr::stdev   312.060766                       (Unspecified)
system.caches.m_missLatencyHistSeqr      |     6004558     81.95%     81.95% |     1254967     17.13%     99.08% |        6411      0.09%     99.17% |       13523      0.18%     99.36% |       39861      0.54%     99.90% |        7329      0.10%    100.00% |          36      0.00%    100.00% |           0      0.00%    100.00% |           0      0.00%    100.00% |           0      0.00%    100.00% (Unspecified)
system.caches.m_missLatencyHistSeqr::total      7326685                       (Unspecified)
system.caches.delayVCHist.vnet_0::bucket_size           16                       # delay histogram for vnet_0 (Unspecified)
system.caches.delayVCHist.vnet_0::max_bucket          159                       # delay histogram for vnet_0 (Unspecified)
system.caches.delayVCHist.vnet_0::samples     16838972                       # delay histogram for vnet_0 (Unspecified)
system.caches.delayVCHist.vnet_0::mean       1.067248                       # delay histogram for vnet_0 (Unspecified)
system.caches.delayVCHist.vnet_0::stdev      2.900726                       # delay histogram for vnet_0 (Unspecified)
system.caches.delayVCHist.vnet_0         |    16755504     99.50%     99.50% |       83102      0.49%    100.00% |         306      0.00%    100.00% |          43      0.00%    100.00% |          16      0.00%    100.00% |           1      0.00%    100.00% |           0      0.00%    100.00% |           0      0.00%    100.00% |           0      0.00%    100.00% |           0      0.00%    100.00% # delay histogram for vnet_0 (Unspecified)
system.caches.delayVCHist.vnet_0::total      16838972                       # delay histogram for vnet_0 (Unspecified)
system.caches.delayVCHist.vnet_1::bucket_size            8                       # delay histogram for vnet_1 (Unspecified)
system.caches.delayVCHist.vnet_1::max_bucket           79                       # delay histogram for vnet_1 (Unspecified)
system.caches.delayVCHist.vnet_1::samples     21283908                       # delay histogram for vnet_1 (Unspecified)
system.caches.delayVCHist.vnet_1::mean       0.837798                       # delay histogram for vnet_1 (Unspecified)
system.caches.delayVCHist.vnet_1::stdev      3.213999                       # delay histogram for vnet_1 (Unspecified)
system.caches.delayVCHist.vnet_1         |    20291513     95.34%     95.34% |      684190      3.21%     98.55% |      218494      1.03%     99.58% |       66009      0.31%     99.89% |       18290      0.09%     99.97% |        4416      0.02%    100.00% |         889      0.00%    100.00% |         102      0.00%    100.00% |           5      0.00%    100.00% |           0      0.00%    100.00% # delay histogram for vnet_1 (Unspecified)
system.caches.delayVCHist.vnet_1::total      21283908                       # delay histogram for vnet_1 (Unspecified)
system.caches.delayVCHist.vnet_2::bucket_size            1                       # delay histogram for vnet_2 (Unspecified)
system.caches.delayVCHist.vnet_2::max_bucket            9                       # delay histogram for vnet_2 (Unspecified)
system.caches.delayVCHist.vnet_2::samples      2230429                       # delay histogram for vnet_2 (Unspecified)
system.caches.delayVCHist.vnet_2::mean       0.000620                       # delay histogram for vnet_2 (Unspecified)
system.caches.delayVCHist.vnet_2::stdev      0.035248                       # delay histogram for vnet_2 (Unspecified)
system.caches.delayVCHist.vnet_2         |     2229739     99.97%     99.97% |           0      0.00%     99.97% |         689      0.03%    100.00% |           0      0.00%    100.00% |           1      0.00%    100.00% |           0      0.00%    100.00% |           0      0.00%    100.00% |           0      0.00%    100.00% |           0      0.00%    100.00% |           0      0.00%    100.00% # delay histogram for vnet_2 (Unspecified)
system.caches.delayVCHist.vnet_2::total       2230429                       # delay histogram for vnet_2 (Unspecified)
system.caches.L1Cache_Controller.Load    |     8242271     12.52%     12.52% |     8244689     12.53%     25.05% |     8194689     12.45%     37.50% |     8219046     12.49%     49.98% |     8275172     12.57%     62.55% |     8244073     12.52%     75.08% |     8183288     12.43%     87.51% |     8221060     12.49%    100.00% (Unspecified)
system.caches.L1Cache_Controller.Load::total     65824288                       (Unspecified)
system.caches.L1Cache_Controller.Ifetch  |     3587798     12.50%     12.50% |     3571765     12.44%     24.94% |     3589253     12.50%     37.44% |     3592045     12.51%     49.96% |     3595514     12.53%     62.48% |     3587412     12.50%     74.98% |     3594441     12.52%     87.50% |     3587580     12.50%    100.00% (Unspecified)
system.caches.L1Cache_Controller.Ifetch::total     28705808                       (Unspecified)
system.caches.L1Cache_Controller.Store   |     1232235     12.57%     12.57% |     1221685     12.46%     25.03% |     1221500     12.46%     37.49% |     1225676     12.50%     49.99% |     1228123     12.53%     62.51% |     1226573     12.51%     75.02% |     1223655     12.48%     87.50% |     1225359     12.50%    100.00% (Unspecified)
system.caches.L1Cache_Controller.Store::total      9804806                       (Unspecified)
system.caches.L1Cache_Controller.Inv     |      213445     12.84%     12.84% |      207361     12.47%     25.31% |      207249     12.47%     37.77% |      207129     12.46%     50.23% |      206754     12.44%     62.67% |      206688     12.43%     75.10% |      207155     12.46%     87.56% |      206860     12.44%    100.00% (Unspecified)
system.caches.L1Cache_Controller.Inv::total      1662641                       (Unspecified)
system.caches.L1Cache_Controller.L1_Replacement |      891978     12.53%     12.53% |      888984     12.49%     25.01% |      886615     12.45%     37.46% |      890656     12.51%     49.97% |      891044     12.51%     62.49% |      892126     12.53%     75.02% |      888043     12.47%     87.49% |      890843     12.51%    100.00% (Unspecified)
system.caches.L1Cache_Controller.L1_Replacement::total      7120289                       (Unspecified)
system.caches.L1Cache_Controller.Fwd_GETX |          21      9.29%      9.29% |          60     26.55%     35.84% |          24     10.62%     46.46% |          24     10.62%     57.08% |          25     11.06%     68.14% |          28     12.39%     80.53% |          22      9.73%     90.27% |          22      9.73%    100.00% (Unspecified)
system.caches.L1Cache_Controller.Fwd_GETX::total          226                       (Unspecified)
system.caches.L1Cache_Controller.Fwd_GETS |       71742     12.64%     12.64% |       71220     12.55%     25.19% |       71037     12.52%     37.70% |       70747     12.47%     50.17% |       70271     12.38%     62.55% |       70750     12.47%     75.02% |       70874     12.49%     87.50% |       70921     12.50%    100.00% (Unspecified)
system.caches.L1Cache_Controller.Fwd_GETS::total       567562                       (Unspecified)
system.caches.L1Cache_Controller.Data    |          37    100.00%    100.00% |           0      0.00%    100.00% |           0      0.00%    100.00% |           0      0.00%    100.00% |           0      0.00%    100.00% |           0      0.00%    100.00% |           0      0.00%    100.00% |           0      0.00%    100.00% (Unspecified)
system.caches.L1Cache_Controller.Data::total           37                       (Unspecified)
system.caches.L1Cache_Controller.Data_Exclusive |      580315     12.51%     12.51% |      579655     12.49%     25.00% |      577668     12.45%     37.45% |      580156     12.50%     49.95% |      579599     12.49%     62.44% |      582180     12.55%     74.98% |      579707     12.49%     87.48% |      581168     12.52%    100.00% (Unspecified)
system.caches.L1Cache_Controller.Data_Exclusive::total      4640448                       (Unspecified)
system.caches.L1Cache_Controller.DataS_fromL1 |       71242     12.55%     12.55% |       71653     12.62%     25.18% |       71171     12.54%     37.72% |       70958     12.50%     50.22% |       70890     12.49%     62.71% |       70457     12.41%     75.12% |       70351     12.40%     87.52% |       70840     12.48%    100.00% (Unspecified)
system.caches.L1Cache_Controller.DataS_fromL1::total       567562                       (Unspecified)
system.caches.L1Cache_Controller.Data_all_Acks |      247864     12.59%     12.59% |      244785     12.43%     25.02% |      244804     12.43%     37.46% |      246470     12.52%     49.98% |      247514     12.57%     62.55% |      246483     12.52%     75.07% |      244968     12.44%     87.51% |      245818     12.49%    100.00% (Unspecified)
system.caches.L1Cache_Controller.Data_all_Acks::total      1968706                       (Unspecified)
system.caches.L1Cache_Controller.Ack     |       20561     12.85%     12.85% |       19728     12.33%     25.18% |       19944     12.46%     37.65% |       20077     12.55%     50.19% |       19788     12.37%     62.56% |       19997     12.50%     75.06% |       19762     12.35%     87.41% |       20145     12.59%    100.00% (Unspecified)
system.caches.L1Cache_Controller.Ack::total       160002                       (Unspecified)
system.caches.L1Cache_Controller.Ack_all |       19085     12.73%     12.73% |       18599     12.40%     25.13% |       18683     12.46%     37.59% |       18873     12.58%     50.17% |       18608     12.41%     62.58% |       18758     12.51%     75.09% |       18475     12.32%     87.41% |       18888     12.59%    100.00% (Unspecified)
system.caches.L1Cache_Controller.Ack_all::total       149969                       (Unspecified)
system.caches.L1Cache_Controller.WB_Ack  |      521438     12.59%     12.59% |      516067     12.46%     25.05% |      514364     12.42%     37.47% |      517695     12.50%     49.96% |      518510     12.52%     62.48% |      519454     12.54%     75.02% |      516190     12.46%     87.48% |      518399     12.52%    100.00% (Unspecified)
system.caches.L1Cache_Controller.WB_Ack::total      4142117                       (Unspecified)
system.caches.L1Cache_Controller.NP.Load |      888892     12.51%     12.51% |      887278     12.49%     25.00% |      884832     12.46%     37.46% |      888886     12.51%     49.97% |      888338     12.50%     62.48% |      890391     12.53%     75.01% |      886264     12.48%     87.48% |      889079     12.52%    100.00% (Unspecified)
system.caches.L1Cache_Controller.NP.Load::total      7103960                       (Unspecified)
system.caches.L1Cache_Controller.NP.Ifetch |        1382     22.86%     22.86% |         591      9.78%     32.64% |         681     11.27%     43.90% |         678     11.22%     55.12% |         609     10.07%     65.19% |         704     11.65%     76.84% |         711     11.76%     88.60% |         689     11.40%    100.00% (Unspecified)
system.caches.L1Cache_Controller.NP.Ifetch::total         6045                       (Unspecified)
system.caches.L1Cache_Controller.NP.Store |        1863     15.55%     15.55% |        1328     11.08%     26.63% |        1313     10.96%     37.59% |        1304     10.88%     48.47% |        2319     19.35%     67.82% |        1260     10.51%     78.34% |        1295     10.81%     89.14% |        1301     10.86%    100.00% (Unspecified)
system.caches.L1Cache_Controller.NP.Store::total        11983                       (Unspecified)
system.caches.L1Cache_Controller.NP.Inv  |      172156     12.92%     12.92% |      165916     12.45%     25.37% |      165521     12.42%     37.80% |      166068     12.46%     50.26% |      165954     12.46%     62.72% |      165503     12.42%     75.14% |      165494     12.42%     87.56% |      165727     12.44%    100.00% (Unspecified)
system.caches.L1Cache_Controller.NP.Inv::total      1332339                       (Unspecified)
system.caches.L1Cache_Controller.I.Load  |        2503     12.46%     12.46% |        2631     13.10%     25.57% |        2579     12.84%     38.41% |        2482     12.36%     50.77% |        2448     12.19%     62.96% |        2469     12.30%     75.26% |        2481     12.35%     87.61% |        2488     12.39%    100.00% (Unspecified)
system.caches.L1Cache_Controller.I.Load::total        20081                       (Unspecified)
system.caches.L1Cache_Controller.I.Ifetch |        4801     13.93%     13.93% |        4244     12.31%     26.24% |        4204     12.20%     38.44% |        4219     12.24%     50.68% |        4266     12.38%     63.06% |        4244     12.31%     75.38% |        4244     12.31%     87.69% |        4243     12.31%    100.00% (Unspecified)
system.caches.L1Cache_Controller.I.Ifetch::total        34465                       (Unspecified)
system.caches.L1Cache_Controller.I.Store |          16      7.88%      7.88% |          22     10.84%     18.72% |          33     16.26%     34.98% |          14      6.90%     41.87% |          18      8.87%     50.74% |          49     24.14%     74.88% |          30     14.78%     89.66% |          21     10.34%    100.00% (Unspecified)
system.caches.L1Cache_Controller.I.Store::total          203                       (Unspecified)
system.caches.L1Cache_Controller.I.L1_Replacement |       33677     12.32%     12.32% |       34308     12.55%     24.87% |       34648     12.68%     37.55% |       34059     12.46%     50.01% |       33775     12.36%     62.37% |       34147     12.49%     74.86% |       34632     12.67%     87.53% |       34078     12.47%    100.00% (Unspecified)
system.caches.L1Cache_Controller.I.L1_Replacement::total       273324                       (Unspecified)
system.caches.L1Cache_Controller.S.Load  |     4330572     12.52%     12.52% |     4351993     12.58%     25.10% |     4316584     12.48%     37.58% |     4320498     12.49%     50.06% |     4320004     12.49%     62.55% |     4338451     12.54%     75.09% |     4297188     12.42%     87.51% |     4319508     12.49%    100.00% (Unspecified)
system.caches.L1Cache_Controller.S.Load::total     34594798                       (Unspecified)
system.caches.L1Cache_Controller.S.Ifetch |     3581615     12.49%     12.49% |     3566930     12.44%     24.94% |     3584368     12.50%     37.44% |     3587148     12.51%     49.96% |     3590639     12.53%     62.48% |     3582464     12.50%     74.98% |     3589486     12.52%     87.50% |     3582648     12.50%    100.00% (Unspecified)
system.caches.L1Cache_Controller.S.Ifetch::total     28665298                       (Unspecified)
system.caches.L1Cache_Controller.S.Store |       19052     12.70%     12.70% |       18602     12.40%     25.11% |       18685     12.46%     37.57% |       18875     12.59%     50.16% |       18614     12.41%     62.57% |       18761     12.51%     75.08% |       18477     12.32%     87.40% |       18895     12.60%    100.00% (Unspecified)
system.caches.L1Cache_Controller.S.Store::total       149961                       (Unspecified)
system.caches.L1Cache_Controller.S.Inv   |       29860     12.77%     12.77% |       29132     12.46%     25.23% |       29383     12.57%     37.80% |       29105     12.45%     50.25% |       28926     12.37%     62.62% |       29114     12.45%     75.08% |       29214     12.50%     87.57% |       29053     12.43%    100.00% (Unspecified)
system.caches.L1Cache_Controller.S.Inv::total       233787                       (Unspecified)
system.caches.L1Cache_Controller.S.L1_Replacement |      336862     12.45%     12.45% |      338608     12.52%     24.97% |      337603     12.48%     37.45% |      338902     12.53%     49.98% |      338759     12.52%     62.51% |      338525     12.52%     75.02% |      337221     12.47%     87.49% |      338366     12.51%    100.00% (Unspecified)
system.caches.L1Cache_Controller.S.L1_Replacement::total      2704846                       (Unspecified)
system.caches.L1Cache_Controller.E.Load  |     1633427     12.50%     12.50% |     1624776     12.44%     24.94% |     1612373     12.34%     37.29% |     1624434     12.44%     49.72% |     1690266     12.94%     62.66% |     1632623     12.50%     75.16% |     1616814     12.38%     87.54% |     1627881     12.46%    100.00% (Unspecified)
system.caches.L1Cache_Controller.E.Load::total     13062594                       (Unspecified)
system.caches.L1Cache_Controller.E.Store |      226444     12.51%     12.51% |      226044     12.48%     24.99% |      225859     12.47%     37.46% |      226527     12.51%     49.97% |      225770     12.47%     62.44% |      226949     12.53%     74.97% |      226611     12.51%     87.49% |      226554     12.51%    100.00% (Unspecified)
system.caches.L1Cache_Controller.E.Store::total      1810758                       (Unspecified)
system.caches.L1Cache_Controller.E.Inv   |        6360     11.67%     11.67% |        6955     12.76%     24.44% |        6924     12.71%     37.15% |        6796     12.47%     49.62% |        6703     12.30%     61.92% |        6864     12.60%     74.52% |        7060     12.96%     87.48% |        6824     12.52%    100.00% (Unspecified)
system.caches.L1Cache_Controller.E.Inv::total        54486                       (Unspecified)
system.caches.L1Cache_Controller.E.L1_Replacement |      292820     12.44%     12.44% |      293837     12.48%     24.92% |      292522     12.43%     37.34% |      294700     12.52%     49.86% |      295262     12.54%     62.40% |      296081     12.58%     74.98% |      293760     12.48%     87.46% |      295310     12.54%    100.00% (Unspecified)
system.caches.L1Cache_Controller.E.L1_Replacement::total      2354292                       (Unspecified)
system.caches.L1Cache_Controller.E.Fwd_GETX |           0      0.00%      0.00% |          31    100.00%    100.00% |           0      0.00%    100.00% |           0      0.00%    100.00% |           0      0.00%    100.00% |           0      0.00%    100.00% |           0      0.00%    100.00% |           0      0.00%    100.00% (Unspecified)
system.caches.L1Cache_Controller.E.Fwd_GETX::total           31                       (Unspecified)
system.caches.L1Cache_Controller.E.Fwd_GETS |       52576     12.54%     12.54% |       52853     12.61%     25.15% |       52406     12.50%     37.65% |       52227     12.46%     50.11% |       51968     12.40%     62.51% |       52395     12.50%     75.01% |       52265     12.47%     87.48% |       52485     12.52%    100.00% (Unspecified)
system.caches.L1Cache_Controller.E.Fwd_GETS::total       419175                       (Unspecified)
system.caches.L1Cache_Controller.M.Load  |     1386877     12.56%     12.56% |     1378010     12.48%     25.04% |     1378320     12.48%     37.52% |     1382746     12.52%     50.04% |     1374113     12.44%     62.48% |     1380138     12.50%     74.98% |     1380540     12.50%     87.48% |     1382104     12.52%    100.00% (Unspecified)
system.caches.L1Cache_Controller.M.Load::total     11042848                       (Unspecified)
system.caches.L1Cache_Controller.M.Store |      984860     12.57%     12.57% |      975689     12.46%     25.03% |      975610     12.46%     37.49% |      978956     12.50%     49.99% |      981402     12.53%     62.52% |      979554     12.51%     75.03% |      977242     12.48%     87.51% |      978588     12.49%    100.00% (Unspecified)
system.caches.L1Cache_Controller.M.Store::total      7831901                       (Unspecified)
system.caches.L1Cache_Controller.M.Inv   |        5064     12.07%     12.07% |        5347     12.75%     24.82% |        5393     12.85%     37.67% |        5156     12.29%     49.96% |        5162     12.30%     62.26% |        5201     12.40%     74.66% |        5383     12.83%     87.49% |        5247     12.51%    100.00% (Unspecified)
system.caches.L1Cache_Controller.M.Inv::total        41953                       (Unspecified)
system.caches.L1Cache_Controller.M.L1_Replacement |      228618     12.79%     12.79% |      222230     12.43%     25.22% |      221842     12.41%     37.63% |      222995     12.47%     50.10% |      223248     12.49%     62.59% |      223373     12.49%     75.08% |      222430     12.44%     87.52% |      223089     12.48%    100.00% (Unspecified)
system.caches.L1Cache_Controller.M.L1_Replacement::total      1787825                       (Unspecified)
system.caches.L1Cache_Controller.M.Fwd_GETX |          21     10.77%     10.77% |          29     14.87%     25.64% |          24     12.31%     37.95% |          24     12.31%     50.26% |          25     12.82%     63.08% |          28     14.36%     77.44% |          22     11.28%     88.72% |          22     11.28%    100.00% (Unspecified)
system.caches.L1Cache_Controller.M.Fwd_GETX::total          195                       (Unspecified)
system.caches.L1Cache_Controller.M.Fwd_GETS |       19164     12.92%     12.92% |       18366     12.38%     25.29% |       18630     12.56%     37.85% |       18520     12.48%     50.33% |       18303     12.34%     62.67% |       18354     12.37%     75.03% |       18609     12.54%     87.58% |       18435     12.42%    100.00% (Unspecified)
system.caches.L1Cache_Controller.M.Fwd_GETS::total       148381                       (Unspecified)
system.caches.L1Cache_Controller.IS.Inv  |           0      0.00%      0.00% |           7     17.07%     17.07% |          24     58.54%     75.61% |           2      4.88%     80.49% |           2      4.88%     85.37% |           2      4.88%     90.24% |           2      4.88%     95.12% |           2      4.88%    100.00% (Unspecified)
system.caches.L1Cache_Controller.IS.Inv::total           41                       (Unspecified)
system.caches.L1Cache_Controller.IS.L1_Replacement |           1     50.00%     50.00% |           1     50.00%    100.00% |           0      0.00%    100.00% |           0      0.00%    100.00% |           0      0.00%    100.00% |           0      0.00%    100.00% |           0      0.00%    100.00% |           0      0.00%    100.00% (Unspecified)
system.caches.L1Cache_Controller.IS.L1_Replacement::total            2                       (Unspecified)
system.caches.L1Cache_Controller.IS.Data_Exclusive |      580315     12.51%     12.51% |      579655     12.49%     25.00% |      577668     12.45%     37.45% |      580156     12.50%     49.95% |      579599     12.49%     62.44% |      582180     12.55%     74.98% |      579707     12.49%     87.48% |      581168     12.52%    100.00% (Unspecified)
system.caches.L1Cache_Controller.IS.Data_Exclusive::total      4640448                       (Unspecified)
system.caches.L1Cache_Controller.IS.DataS_fromL1 |       71242     12.55%     12.55% |       71653     12.62%     25.18% |       71171     12.54%     37.72% |       70958     12.50%     50.22% |       70890     12.49%     62.71% |       70457     12.41%     75.12% |       70351     12.40%     87.52% |       70840     12.48%    100.00% (Unspecified)
system.caches.L1Cache_Controller.IS.DataS_fromL1::total       567562                       (Unspecified)
system.caches.L1Cache_Controller.IS.Data_all_Acks |      246018     12.57%     12.57% |      243425     12.44%     25.02% |      243432     12.44%     37.46% |      245148     12.53%     49.99% |      245169     12.53%     62.52% |      245169     12.53%     75.05% |      243639     12.45%     87.50% |      244487     12.50%    100.00% (Unspecified)
system.caches.L1Cache_Controller.IS.Data_all_Acks::total      1956487                       (Unspecified)
system.caches.L1Cache_Controller.IM.Data |          37    100.00%    100.00% |           0      0.00%    100.00% |           0      0.00%    100.00% |           0      0.00%    100.00% |           0      0.00%    100.00% |           0      0.00%    100.00% |           0      0.00%    100.00% |           0      0.00%    100.00% (Unspecified)
system.caches.L1Cache_Controller.IM.Data::total           37                       (Unspecified)
system.caches.L1Cache_Controller.IM.Data_all_Acks |        1846     15.16%     15.16% |        1353     11.11%     26.27% |        1348     11.07%     37.34% |        1320     10.84%     48.18% |        2343     19.24%     67.42% |        1312     10.77%     78.19% |        1327     10.90%     89.09% |        1329     10.91%    100.00% (Unspecified)
system.caches.L1Cache_Controller.IM.Data_all_Acks::total        12178                       (Unspecified)
system.caches.L1Cache_Controller.SM.Inv  |           4     13.79%     13.79% |           3     10.34%     24.14% |           2      6.90%     31.03% |           2      6.90%     37.93% |           6     20.69%     58.62% |           3     10.34%     68.97% |           2      6.90%     75.86% |           7     24.14%    100.00% (Unspecified)
system.caches.L1Cache_Controller.SM.Inv::total           29                       (Unspecified)
system.caches.L1Cache_Controller.SM.Ack  |       20561     12.85%     12.85% |       19728     12.33%     25.18% |       19944     12.46%     37.65% |       20077     12.55%     50.19% |       19788     12.37%     62.56% |       19997     12.50%     75.06% |       19762     12.35%     87.41% |       20145     12.59%    100.00% (Unspecified)
system.caches.L1Cache_Controller.SM.Ack::total       160002                       (Unspecified)
system.caches.L1Cache_Controller.SM.Ack_all |       19085     12.73%     12.73% |       18599     12.40%     25.13% |       18683     12.46%     37.59% |       18873     12.58%     50.17% |       18608     12.41%     62.58% |       18758     12.51%     75.09% |       18475     12.32%     87.41% |       18888     12.59%    100.00% (Unspecified)
system.caches.L1Cache_Controller.SM.Ack_all::total       149969                       (Unspecified)
system.caches.L1Cache_Controller.IS_I.Data_all_Acks |           0      0.00%      0.00% |           7     17.07%     17.07% |          24     58.54%     75.61% |           2      4.88%     80.49% |           2      4.88%     85.37% |           2      4.88%     90.24% |           2      4.88%     95.12% |           2      4.88%    100.00% (Unspecified)
system.caches.L1Cache_Controller.IS_I.Data_all_Acks::total           41                       (Unspecified)
system.caches.L1Cache_Controller.M_I.Load |           0      0.00%      0.00% |           1     14.29%     14.29% |           1     14.29%     28.57% |           0      0.00%     28.57% |           3     42.86%     71.43% |           1     14.29%     85.71% |           1     14.29%    100.00% |           0      0.00%    100.00% (Unspecified)
system.caches.L1Cache_Controller.M_I.Load::total            7                       (Unspecified)
system.caches.L1Cache_Controller.M_I.Inv |           1     16.67%     16.67% |           1     16.67%     33.33% |           2     33.33%     66.67% |           0      0.00%     66.67% |           1     16.67%     83.33% |           1     16.67%    100.00% |           0      0.00%    100.00% |           0      0.00%    100.00% (Unspecified)
system.caches.L1Cache_Controller.M_I.Inv::total            6                       (Unspecified)
system.caches.L1Cache_Controller.M_I.Fwd_GETS |           2     33.33%     33.33% |           1     16.67%     50.00% |           1     16.67%     66.67% |           0      0.00%     66.67% |           0      0.00%     66.67% |           1     16.67%     83.33% |           0      0.00%     83.33% |           1     16.67%    100.00% (Unspecified)
system.caches.L1Cache_Controller.M_I.Fwd_GETS::total            6                       (Unspecified)
system.caches.L1Cache_Controller.M_I.WB_Ack |      521435     12.59%     12.59% |      516065     12.46%     25.05% |      514361     12.42%     37.47% |      517695     12.50%     49.96% |      518509     12.52%     62.48% |      519452     12.54%     75.02% |      516190     12.46%     87.48% |      518398     12.52%    100.00% (Unspecified)
system.caches.L1Cache_Controller.M_I.WB_Ack::total      4142105                       (Unspecified)
system.caches.L1Cache_Controller.SINK_WB_ACK.WB_Ack |           3     25.00%     25.00% |           2     16.67%     41.67% |           3     25.00%     66.67% |           0      0.00%     66.67% |           1      8.33%     75.00% |           2     16.67%     91.67% |           0      0.00%     91.67% |           1      8.33%    100.00% (Unspecified)
system.caches.L1Cache_Controller.SINK_WB_ACK.WB_Ack::total           12                       (Unspecified)
system.caches.Directory_Controller.Fetch |        6745      0.18%      0.18% |     3785714     99.82%    100.00% (Unspecified)
system.caches.Directory_Controller.Fetch::total      3792459                       (Unspecified)
system.caches.Directory_Controller.Data  |         418      0.03%      0.03% |     1599576     99.97%    100.00% (Unspecified)
system.caches.Directory_Controller.Data::total      1599994                       (Unspecified)
system.caches.Directory_Controller.Memory_Data |        6745      0.18%      0.18% |     3785701     99.82%    100.00% (Unspecified)
system.caches.Directory_Controller.Memory_Data::total      3792446                       (Unspecified)
system.caches.Directory_Controller.Memory_Ack |         418      0.03%      0.03% |     1599575     99.97%    100.00% (Unspecified)
system.caches.Directory_Controller.Memory_Ack::total      1599993                       (Unspecified)
system.caches.Directory_Controller.CleanReplacement |        6445      0.29%      0.29% |     2186020     99.71%    100.00% (Unspecified)
system.caches.Directory_Controller.CleanReplacement::total      2192465                       (Unspecified)
system.caches.Directory_Controller.I.Fetch |        6745      0.18%      0.18% |     3785714     99.82%    100.00% (Unspecified)
system.caches.Directory_Controller.I.Fetch::total      3792459                       (Unspecified)
system.caches.Directory_Controller.M.Data |         418      0.03%      0.03% |     1599576     99.97%    100.00% (Unspecified)
system.caches.Directory_Controller.M.Data::total      1599994                       (Unspecified)
system.caches.Directory_Controller.M.CleanReplacement |        6445      0.29%      0.29% |     2186020     99.71%    100.00% (Unspecified)
system.caches.Directory_Controller.M.CleanReplacement::total      2192465                       (Unspecified)
system.caches.Directory_Controller.IM.Memory_Data |        6745      0.18%      0.18% |     3785701     99.82%    100.00% (Unspecified)
system.caches.Directory_Controller.IM.Memory_Data::total      3792446                       (Unspecified)
system.caches.Directory_Controller.MI.Memory_Ack |         418      0.03%      0.03% |     1599575     99.97%    100.00% (Unspecified)
system.caches.Directory_Controller.MI.Memory_Ack::total      1599993                       (Unspecified)
system.caches.L2Cache_Controller.L1_GET_INSTR |        5149     12.68%     12.68% |        5745     14.15%     26.82% |        5222     12.86%     39.68% |        3621      8.92%     48.60% |        5346     13.16%     61.76% |        5144     12.67%     74.42% |        5180     12.75%     87.18% |        5208     12.82%    100.00% (Unspecified)
system.caches.L2Cache_Controller.L1_GET_INSTR::total        40615                       (Unspecified)
system.caches.L2Cache_Controller.L1_GETS |      890342     12.50%     12.50% |      900534     12.64%     25.14% |      892916     12.53%     37.67% |      891889     12.52%     50.19% |      882310     12.38%     62.57% |      886274     12.44%     75.01% |      894406     12.55%     87.56% |      886004     12.44%    100.00% (Unspecified)
system.caches.L2Cache_Controller.L1_GETS::total      7124675                       (Unspecified)
system.caches.L2Cache_Controller.L1_GETX |        1750     14.29%     14.29% |        1412     11.53%     25.82% |         617      5.04%     30.86% |        1223      9.99%     40.85% |        1473     12.03%     52.87% |        2057     16.80%     69.67% |        1624     13.26%     82.93% |        2090     17.07%    100.00% (Unspecified)
system.caches.L2Cache_Controller.L1_GETX::total        12246                       (Unspecified)
system.caches.L2Cache_Controller.L1_UPGRADE |       19033     12.69%     12.69% |       17747     11.83%     24.52% |       18613     12.41%     36.92% |       19092     12.73%     49.65% |       18762     12.51%     62.16% |       18913     12.61%     74.76% |       18753     12.50%     87.26% |       19109     12.74%    100.00% (Unspecified)
system.caches.L2Cache_Controller.L1_UPGRADE::total       150022                       (Unspecified)
system.caches.L2Cache_Controller.L1_PUTX |      519697     12.55%     12.55% |      518379     12.51%     25.06% |      517096     12.48%     37.55% |      517984     12.51%     50.05% |      515493     12.45%     62.50% |      518908     12.53%     75.02% |      517978     12.51%     87.53% |      516582     12.47%    100.00% (Unspecified)
system.caches.L2Cache_Controller.L1_PUTX::total      4142117                       (Unspecified)
system.caches.L2Cache_Controller.L1_PUTX_old |           2     16.67%     16.67% |           0      0.00%     16.67% |           0      0.00%     16.67% |           2     16.67%     33.33% |           4     33.33%     66.67% |           2     16.67%     83.33% |           2     16.67%    100.00% |           0      0.00%    100.00% (Unspecified)
system.caches.L2Cache_Controller.L1_PUTX_old::total           12                       (Unspecified)
system.caches.L2Cache_Controller.L2_Replacement |      195724     12.50%     12.50% |      195918     12.52%     25.02% |      195264     12.48%     37.50% |      195763     12.51%     50.00% |      194527     12.43%     62.43% |      197119     12.59%     75.03% |      194977     12.46%     87.48% |      195898     12.52%    100.00% (Unspecified)
system.caches.L2Cache_Controller.L2_Replacement::total      1565190                       (Unspecified)
system.caches.L2Cache_Controller.L2_Replacement_clean |      280284     12.58%     12.58% |      277704     12.47%     25.05% |      278659     12.51%     37.56% |      278858     12.52%     50.08% |      277820     12.47%     62.56% |      277983     12.48%     75.04% |      278233     12.49%     87.53% |      277728     12.47%    100.00% (Unspecified)
system.caches.L2Cache_Controller.L2_Replacement_clean::total      2227269                       (Unspecified)
system.caches.L2Cache_Controller.Mem_Data |      476007     12.55%     12.55% |      473621     12.49%     25.04% |      473921     12.50%     37.54% |      474620     12.51%     50.05% |      472344     12.45%     62.51% |      475101     12.53%     75.03% |      473210     12.48%     87.51% |      473622     12.49%    100.00% (Unspecified)
system.caches.L2Cache_Controller.Mem_Data::total      3792446                       (Unspecified)
system.caches.L2Cache_Controller.Mem_Ack |      476008     12.55%     12.55% |      473622     12.49%     25.04% |      473923     12.50%     37.54% |      474621     12.51%     50.05% |      472346     12.45%     62.51% |      475102     12.53%     75.03% |      473210     12.48%     87.51% |      473625     12.49%    100.00% (Unspecified)
system.caches.L2Cache_Controller.Mem_Ack::total      3792457                       (Unspecified)
system.caches.L2Cache_Controller.WB_Data |       24104     12.66%     12.66% |       22415     11.78%     24.44% |       23660     12.43%     36.87% |       24081     12.65%     49.52% |       23632     12.42%     61.94% |       24031     12.63%     74.56% |       23767     12.49%     87.05% |       24649     12.95%    100.00% (Unspecified)
system.caches.L2Cache_Controller.WB_Data::total       190339                       (Unspecified)
system.caches.L2Cache_Controller.WB_Data_clean |       52910     12.62%     12.62% |       51767     12.35%     24.97% |       52401     12.50%     37.47% |       52789     12.59%     50.07% |       52441     12.51%     62.58% |       52191     12.45%     75.03% |       52526     12.53%     87.56% |       52157     12.44%    100.00% (Unspecified)
system.caches.L2Cache_Controller.WB_Data_clean::total       419182                       (Unspecified)
system.caches.L2Cache_Controller.Ack     |      125290     12.61%     12.61% |      123584     12.44%     25.05% |      125370     12.62%     37.68% |      124123     12.50%     50.17% |      124050     12.49%     62.66% |      123512     12.43%     75.10% |      123142     12.40%     87.49% |      124241     12.51%    100.00% (Unspecified)
system.caches.L2Cache_Controller.Ack::total       993312                       (Unspecified)
system.caches.L2Cache_Controller.Ack_all |       59458     12.72%     12.72% |       57674     12.34%     25.06% |       58427     12.50%     37.57% |       58448     12.51%     50.07% |       58532     12.52%     62.60% |       58035     12.42%     75.02% |       58407     12.50%     87.51% |       58350     12.49%    100.00% (Unspecified)
system.caches.L2Cache_Controller.Ack_all::total       467331                       (Unspecified)
system.caches.L2Cache_Controller.Unblock |       71815     12.65%     12.65% |       69278     12.21%     24.86% |       70853     12.48%     37.34% |       71691     12.63%     49.97% |       70948     12.50%     62.48% |       70842     12.48%     74.96% |       71070     12.52%     87.48% |       71065     12.52%    100.00% (Unspecified)
system.caches.L2Cache_Controller.Unblock::total       567562                       (Unspecified)
system.caches.L2Cache_Controller.Exclusive_Unblock |      603525     12.57%     12.57% |      598648     12.47%     25.03% |      599399     12.48%     37.51% |      601041     12.51%     50.03% |      598101     12.45%     62.48% |      601387     12.52%     75.00% |      600544     12.50%     87.51% |      599950     12.49%    100.00% (Unspecified)
system.caches.L2Cache_Controller.Exclusive_Unblock::total      4802595                       (Unspecified)
system.caches.L2Cache_Controller.NP.L1_GET_INSTR |         770     13.58%     13.58% |         811     14.30%     27.88% |         739     13.03%     40.91% |         537      9.47%     50.38% |         692     12.20%     62.58% |         687     12.11%     74.70% |         644     11.36%     86.05% |         791     13.95%    100.00% (Unspecified)
system.caches.L2Cache_Controller.NP.L1_GET_INSTR::total         5671                       (Unspecified)
system.caches.L2Cache_Controller.NP.L1_GETS |      473848     12.54%     12.54% |      471714     12.49%     25.03% |      472637     12.51%     37.54% |      473138     12.53%     50.07% |      470531     12.46%     62.53% |      472794     12.52%     75.04% |      471387     12.48%     87.52% |      471389     12.48%    100.00% (Unspecified)
system.caches.L2Cache_Controller.NP.L1_GETS::total      3777438                       (Unspecified)
system.caches.L2Cache_Controller.NP.L1_GETX |        1390     14.87%     14.87% |        1097     11.73%     26.60% |         547      5.85%     32.45% |         946     10.12%     42.57% |        1124     12.02%     54.59% |        1621     17.34%     71.93% |        1179     12.61%     84.53% |        1446     15.47%    100.00% (Unspecified)
system.caches.L2Cache_Controller.NP.L1_GETX::total         9350                       (Unspecified)
system.caches.L2Cache_Controller.NP.L1_PUTX_old |           1     16.67%     16.67% |           0      0.00%     16.67% |           0      0.00%     16.67% |           1     16.67%     33.33% |           2     33.33%     66.67% |           1     16.67%     83.33% |           1     16.67%    100.00% |           0      0.00%    100.00% (Unspecified)
system.caches.L2Cache_Controller.NP.L1_PUTX_old::total            6                       (Unspecified)
system.caches.L2Cache_Controller.SS.L1_GET_INSTR |        3310     12.00%     12.00% |        3689     13.37%     25.38% |        3465     12.56%     37.94% |        2185      7.92%     45.86% |        3831     13.89%     59.75% |        3522     12.77%     72.52% |        3818     13.84%     86.36% |        3762     13.64%    100.00% (Unspecified)
system.caches.L2Cache_Controller.SS.L1_GET_INSTR::total        27582                       (Unspecified)
system.caches.L2Cache_Controller.SS.L1_GETS |      235345     12.30%     12.30% |      251089     13.12%     25.43% |      241505     12.62%     38.05% |      239138     12.50%     50.55% |      233327     12.20%     62.75% |      234482     12.26%     75.00% |      242378     12.67%     87.67% |      235818     12.33%    100.00% (Unspecified)
system.caches.L2Cache_Controller.SS.L1_GETS::total      1913082                       (Unspecified)
system.caches.L2Cache_Controller.SS.L1_GETX |          23     62.16%     62.16% |           0      0.00%     62.16% |           0      0.00%     62.16% |           0      0.00%     62.16% |           0      0.00%     62.16% |           0      0.00%     62.16% |          14     37.84%    100.00% |           0      0.00%    100.00% (Unspecified)
system.caches.L2Cache_Controller.SS.L1_GETX::total           37                       (Unspecified)
system.caches.L2Cache_Controller.SS.L1_UPGRADE |       19027     12.69%     12.69% |       17738     11.83%     24.52% |       18612     12.41%     36.93% |       19092     12.73%     49.67% |       18758     12.51%     62.18% |       18907     12.61%     74.79% |       18691     12.47%     87.26% |       19107     12.74%    100.00% (Unspecified)
system.caches.L2Cache_Controller.SS.L1_UPGRADE::total       149932                       (Unspecified)
system.caches.L2Cache_Controller.SS.L1_PUTX |           1     16.67%     16.67% |           1     16.67%     33.33% |           0      0.00%     33.33% |           0      0.00%     33.33% |           2     33.33%     66.67% |           1     16.67%     83.33% |           0      0.00%     83.33% |           1     16.67%    100.00% (Unspecified)
system.caches.L2Cache_Controller.SS.L1_PUTX::total            6                       (Unspecified)
system.caches.L2Cache_Controller.SS.L2_Replacement |        1092     13.38%     13.38% |        1007     12.34%     25.71% |        1032     12.64%     38.36% |        1042     12.76%     51.12% |        1032     12.64%     63.76% |         962     11.78%     75.55% |        1005     12.31%     87.86% |         991     12.14%    100.00% (Unspecified)
system.caches.L2Cache_Controller.SS.L2_Replacement::total         8163                       (Unspecified)
system.caches.L2Cache_Controller.SS.L2_Replacement_clean |       51126     12.63%     12.63% |       50084     12.38%     25.01% |       50717     12.53%     37.54% |       50749     12.54%     50.08% |       50501     12.48%     62.56% |       50275     12.42%     74.99% |       50696     12.53%     87.51% |       50534     12.49%    100.00% (Unspecified)
system.caches.L2Cache_Controller.SS.L2_Replacement_clean::total       404682                       (Unspecified)
system.caches.L2Cache_Controller.M.L1_GET_INSTR |           0      0.00%      0.00% |           2     20.00%     20.00% |           2     20.00%     40.00% |           0      0.00%     40.00% |           1     10.00%     50.00% |           1     10.00%     60.00% |           2     20.00%     80.00% |           2     20.00%    100.00% (Unspecified)
system.caches.L2Cache_Controller.M.L1_GET_INSTR::total           10                       (Unspecified)
system.caches.L2Cache_Controller.M.L1_GETS |      109036     12.62%     12.62% |      107942     12.50%     25.12% |      107662     12.46%     37.58% |      107687     12.47%     50.04% |      107404     12.43%     62.48% |      107735     12.47%     74.95% |      108915     12.61%     87.56% |      107499     12.44%    100.00% (Unspecified)
system.caches.L2Cache_Controller.M.L1_GETS::total       863880                       (Unspecified)
system.caches.L2Cache_Controller.M.L1_GETX |         310     11.91%     11.91% |         305     11.72%     23.64% |          69      2.65%     26.29% |         276     10.61%     36.89% |         344     13.22%     50.12% |         427     16.41%     66.53% |         410     15.76%     82.28% |         461     17.72%    100.00% (Unspecified)
system.caches.L2Cache_Controller.M.L1_GETX::total         2602                       (Unspecified)
system.caches.L2Cache_Controller.M.L2_Replacement |      193688     12.50%     12.50% |      194060     12.52%     25.02% |      193293     12.47%     37.50% |      193824     12.51%     50.00% |      192584     12.43%     62.43% |      195217     12.60%     75.03% |      193024     12.46%     87.49% |      193919     12.51%    100.00% (Unspecified)
system.caches.L2Cache_Controller.M.L2_Replacement::total      1549609                       (Unspecified)
system.caches.L2Cache_Controller.M.L2_Replacement_clean |      217663     12.56%     12.56% |      216984     12.52%     25.07% |      216995     12.52%     37.59% |      217170     12.53%     50.12% |      216106     12.47%     62.58% |      216470     12.49%     75.07% |      216556     12.49%     87.56% |      215616     12.44%    100.00% (Unspecified)
system.caches.L2Cache_Controller.M.L2_Replacement_clean::total      1733560                       (Unspecified)
system.caches.L2Cache_Controller.MT.L1_GETS |       71815     12.65%     12.65% |       69278     12.21%     24.86% |       70853     12.48%     37.34% |       71691     12.63%     49.97% |       70948     12.50%     62.48% |       70842     12.48%     74.96% |       71070     12.52%     87.48% |       71065     12.52%    100.00% (Unspecified)
system.caches.L2Cache_Controller.MT.L1_GETS::total       567562                       (Unspecified)
system.caches.L2Cache_Controller.MT.L1_GETX |          22      9.73%      9.73% |           9      3.98%     13.72% |           1      0.44%     14.16% |           0      0.00%     14.16% |           4      1.77%     15.93% |           7      3.10%     19.03% |          19      8.41%     27.43% |         164     72.57%    100.00% (Unspecified)
system.caches.L2Cache_Controller.MT.L1_GETX::total          226                       (Unspecified)
system.caches.L2Cache_Controller.MT.L1_PUTX |      519695     12.55%     12.55% |      518377     12.51%     25.06% |      517096     12.48%     37.55% |      517984     12.51%     50.05% |      515489     12.45%     62.50% |      518906     12.53%     75.02% |      517978     12.51%     87.53% |      516580     12.47%    100.00% (Unspecified)
system.caches.L2Cache_Controller.MT.L1_PUTX::total      4142105                       (Unspecified)
system.caches.L2Cache_Controller.MT.L2_Replacement |         944     12.73%     12.73% |         851     11.47%     24.20% |         939     12.66%     36.86% |         897     12.09%     48.95% |         911     12.28%     61.23% |         940     12.67%     73.90% |         948     12.78%     86.68% |         988     13.32%    100.00% (Unspecified)
system.caches.L2Cache_Controller.MT.L2_Replacement::total         7418                       (Unspecified)
system.caches.L2Cache_Controller.MT.L2_Replacement_clean |       11495     12.91%     12.91% |       10636     11.95%     24.86% |       10947     12.30%     37.16% |       10939     12.29%     49.44% |       11213     12.60%     62.04% |       11238     12.62%     74.66% |       10981     12.33%     86.99% |       11578     13.01%    100.00% (Unspecified)
system.caches.L2Cache_Controller.MT.L2_Replacement_clean::total        89027                       (Unspecified)
system.caches.L2Cache_Controller.M_I.L1_GET_INSTR |          30     28.57%     28.57% |          29     27.62%     56.19% |          31     29.52%     85.71% |          15     14.29%    100.00% |           0      0.00%    100.00% |           0      0.00%    100.00% |           0      0.00%    100.00% |           0      0.00%    100.00% (Unspecified)
system.caches.L2Cache_Controller.M_I.L1_GET_INSTR::total          105                       (Unspecified)
system.caches.L2Cache_Controller.M_I.L1_GETS |          14      9.27%      9.27% |          18     11.92%     21.19% |           2      1.32%     22.52% |           2      1.32%     23.84% |           5      3.31%     27.15% |          34     22.52%     49.67% |          16     10.60%     60.26% |          60     39.74%    100.00% (Unspecified)
system.caches.L2Cache_Controller.M_I.L1_GETS::total          151                       (Unspecified)
system.caches.L2Cache_Controller.M_I.L1_GETX |           4     14.29%     14.29% |           1      3.57%     17.86% |           0      0.00%     17.86% |           1      3.57%     21.43% |           1      3.57%     25.00% |           2      7.14%     32.14% |           0      0.00%     32.14% |          19     67.86%    100.00% (Unspecified)
system.caches.L2Cache_Controller.M_I.L1_GETX::total           28                       (Unspecified)
system.caches.L2Cache_Controller.M_I.Mem_Ack |      476008     12.55%     12.55% |      473622     12.49%     25.04% |      473923     12.50%     37.54% |      474621     12.51%     50.05% |      472346     12.45%     62.51% |      475102     12.53%     75.03% |      473210     12.48%     87.51% |      473625     12.49%    100.00% (Unspecified)
system.caches.L2Cache_Controller.M_I.Mem_Ack::total      3792457                       (Unspecified)
system.caches.L2Cache_Controller.MT_I.WB_Data |         897     12.54%     12.54% |         821     11.48%     24.02% |         914     12.78%     36.80% |         862     12.05%     48.85% |         886     12.39%     61.24% |         906     12.67%     73.91% |         908     12.70%     86.61% |         958     13.39%    100.00% (Unspecified)
system.caches.L2Cache_Controller.MT_I.WB_Data::total         7152                       (Unspecified)
system.caches.L2Cache_Controller.MT_I.Ack_all |          47     17.67%     17.67% |          30     11.28%     28.95% |          25      9.40%     38.35% |          35     13.16%     51.50% |          25      9.40%     60.90% |          34     12.78%     73.68% |          40     15.04%     88.72% |          30     11.28%    100.00% (Unspecified)
system.caches.L2Cache_Controller.MT_I.Ack_all::total          266                       (Unspecified)
system.caches.L2Cache_Controller.MCT_I.L1_PUTX_old |           1     16.67%     16.67% |           0      0.00%     16.67% |           0      0.00%     16.67% |           1     16.67%     33.33% |           2     33.33%     66.67% |           1     16.67%     83.33% |           1     16.67%    100.00% |           0      0.00%    100.00% (Unspecified)
system.caches.L2Cache_Controller.MCT_I.L1_PUTX_old::total            6                       (Unspecified)
system.caches.L2Cache_Controller.MCT_I.WB_Data |        4301     12.36%     12.36% |        4083     11.73%     24.09% |        4294     12.34%     36.43% |        4316     12.40%     48.83% |        4239     12.18%     61.01% |        4474     12.85%     73.86% |        4314     12.40%     86.26% |        4783     13.74%    100.00% (Unspecified)
system.caches.L2Cache_Controller.MCT_I.WB_Data::total        34804                       (Unspecified)
system.caches.L2Cache_Controller.MCT_I.WB_Data_clean |           1     33.33%     33.33% |           0      0.00%     33.33% |           0      0.00%     33.33% |           1     33.33%     66.67% |           0      0.00%     66.67% |           0      0.00%     66.67% |           1     33.33%    100.00% |           0      0.00%    100.00% (Unspecified)
system.caches.L2Cache_Controller.MCT_I.WB_Data_clean::total            3                       (Unspecified)
system.caches.L2Cache_Controller.MCT_I.Ack_all |        7193     13.27%     13.27% |        6553     12.09%     25.35% |        6653     12.27%     37.62% |        6622     12.21%     49.84% |        6974     12.86%     62.70% |        6764     12.48%     75.17% |        6666     12.29%     87.47% |        6795     12.53%    100.00% (Unspecified)
system.caches.L2Cache_Controller.MCT_I.Ack_all::total        54220                       (Unspecified)
system.caches.L2Cache_Controller.I_I.L1_GETS |           0      0.00%      0.00% |           0      0.00%      0.00% |           0      0.00%      0.00% |           0      0.00%      0.00% |           0      0.00%      0.00% |           1     50.00%     50.00% |           1     50.00%    100.00% |           0      0.00%    100.00% (Unspecified)
system.caches.L2Cache_Controller.I_I.L1_GETS::total            2                       (Unspecified)
system.caches.L2Cache_Controller.I_I.Ack |      122664     12.59%     12.59% |      121200     12.44%     25.03% |      122952     12.62%     37.65% |      121751     12.50%     50.15% |      121688     12.49%     62.64% |      121228     12.44%     75.08% |      120775     12.40%     87.47% |      122034     12.53%    100.00% (Unspecified)
system.caches.L2Cache_Controller.I_I.Ack::total       974292                       (Unspecified)
system.caches.L2Cache_Controller.I_I.Ack_all |       51126     12.63%     12.63% |       50084     12.38%     25.01% |       50717     12.53%     37.54% |       50749     12.54%     50.08% |       50501     12.48%     62.56% |       50275     12.42%     74.99% |       50696     12.53%     87.51% |       50534     12.49%    100.00% (Unspecified)
system.caches.L2Cache_Controller.I_I.Ack_all::total       404682                       (Unspecified)
system.caches.L2Cache_Controller.S_I.Ack |        2626     13.81%     13.81% |        2384     12.53%     26.34% |        2418     12.71%     39.05% |        2372     12.47%     51.52% |        2362     12.42%     63.94% |        2284     12.01%     75.95% |        2367     12.44%     88.40% |        2207     11.60%    100.00% (Unspecified)
system.caches.L2Cache_Controller.S_I.Ack::total        19020                       (Unspecified)
system.caches.L2Cache_Controller.S_I.Ack_all |        1092     13.38%     13.38% |        1007     12.34%     25.71% |        1032     12.64%     38.36% |        1042     12.76%     51.12% |        1032     12.64%     63.76% |         962     11.78%     75.55% |        1005     12.31%     87.86% |         991     12.14%    100.00% (Unspecified)
system.caches.L2Cache_Controller.S_I.Ack_all::total         8163                       (Unspecified)
system.caches.L2Cache_Controller.ISS.L1_GETS |         130     15.17%     15.17% |         156     18.20%     33.37% |         127     14.82%     48.19% |          97     11.32%     59.51% |          61      7.12%     66.63% |         103     12.02%     78.65% |          71      8.28%     86.93% |         112     13.07%    100.00% (Unspecified)
system.caches.L2Cache_Controller.ISS.L1_GETS::total          857                       (Unspecified)
system.caches.L2Cache_Controller.ISS.L1_GETX |           0      0.00%      0.00% |           0      0.00%      0.00% |           0      0.00%      0.00% |           0      0.00%      0.00% |           0      0.00%      0.00% |           0      0.00%      0.00% |           2    100.00%    100.00% |           0      0.00%    100.00% (Unspecified)
system.caches.L2Cache_Controller.ISS.L1_GETX::total            2                       (Unspecified)
system.caches.L2Cache_Controller.ISS.Mem_Data |      473717     12.54%     12.54% |      471557     12.49%     25.03% |      472508     12.51%     37.54% |      473040     12.53%     50.07% |      470467     12.46%     62.52% |      472690     12.52%     75.04% |      471316     12.48%     87.52% |      471273     12.48%    100.00% (Unspecified)
system.caches.L2Cache_Controller.ISS.Mem_Data::total      3776568                       (Unspecified)
system.caches.L2Cache_Controller.IS.L1_GET_INSTR |        1039     14.34%     14.34% |        1214     16.75%     31.09% |         985     13.59%     44.68% |         884     12.20%     56.88% |         822     11.34%     68.22% |         934     12.89%     81.11% |         716      9.88%     90.99% |         653      9.01%    100.00% (Unspecified)
system.caches.L2Cache_Controller.IS.L1_GET_INSTR::total         7247                       (Unspecified)
system.caches.L2Cache_Controller.IS.L1_GETS |         129     10.56%     10.56% |         305     24.96%     35.52% |         126     10.31%     45.83% |         132     10.80%     56.63% |          33      2.70%     59.33% |         275     22.50%     81.83% |         164     13.42%     95.25% |          58      4.75%    100.00% (Unspecified)
system.caches.L2Cache_Controller.IS.L1_GETS::total         1222                       (Unspecified)
system.caches.L2Cache_Controller.IS.Mem_Data |         900     13.79%     13.79% |         967     14.81%     28.60% |         866     13.27%     41.87% |         634      9.71%     51.58% |         753     11.53%     63.11% |         790     12.10%     75.21% |         715     10.95%     86.17% |         903     13.83%    100.00% (Unspecified)
system.caches.L2Cache_Controller.IS.Mem_Data::total         6528                       (Unspecified)
system.caches.L2Cache_Controller.IM.L1_GETS |           0      0.00%      0.00% |           0      0.00%      0.00% |           0      0.00%      0.00% |           0      0.00%      0.00% |           0      0.00%      0.00% |           0      0.00%      0.00% |           1    100.00%    100.00% |           0      0.00%    100.00% (Unspecified)
system.caches.L2Cache_Controller.IM.L1_GETS::total            1                       (Unspecified)
system.caches.L2Cache_Controller.IM.Mem_Data |        1390     14.87%     14.87% |        1097     11.73%     26.60% |         547      5.85%     32.45% |         946     10.12%     42.57% |        1124     12.02%     54.59% |        1621     17.34%     71.93% |        1179     12.61%     84.53% |        1446     15.47%    100.00% (Unspecified)
system.caches.L2Cache_Controller.IM.Mem_Data::total         9350                       (Unspecified)
system.caches.L2Cache_Controller.SS_MB.L1_GETS |           0      0.00%      0.00% |           0      0.00%      0.00% |           0      0.00%      0.00% |           0      0.00%      0.00% |           0      0.00%      0.00% |           0      0.00%      0.00% |         281    100.00%    100.00% |           0      0.00%    100.00% (Unspecified)
system.caches.L2Cache_Controller.SS_MB.L1_GETS::total          281                       (Unspecified)
system.caches.L2Cache_Controller.SS_MB.L1_GETX |           1    100.00%    100.00% |           0      0.00%    100.00% |           0      0.00%    100.00% |           0      0.00%    100.00% |           0      0.00%    100.00% |           0      0.00%    100.00% |           0      0.00%    100.00% |           0      0.00%    100.00% (Unspecified)
system.caches.L2Cache_Controller.SS_MB.L1_GETX::total            1                       (Unspecified)
system.caches.L2Cache_Controller.SS_MB.L1_UPGRADE |           6     20.69%     20.69% |           9     31.03%     51.72% |           1      3.45%     55.17% |           0      0.00%     55.17% |           4     13.79%     68.97% |           5     17.24%     86.21% |           2      6.90%     93.10% |           2      6.90%    100.00% (Unspecified)
system.caches.L2Cache_Controller.SS_MB.L1_UPGRADE::total           29                       (Unspecified)
system.caches.L2Cache_Controller.SS_MB.Exclusive_Unblock |       19050     12.70%     12.70% |       17738     11.83%     24.53% |       18612     12.41%     36.94% |       19092     12.73%     49.67% |       18758     12.51%     62.18% |       18907     12.61%     74.79% |       18705     12.47%     87.26% |       19107     12.74%    100.00% (Unspecified)
system.caches.L2Cache_Controller.SS_MB.Exclusive_Unblock::total       149969                       (Unspecified)
system.caches.L2Cache_Controller.MT_MB.L1_GETS |           0      0.00%      0.00% |           0      0.00%      0.00% |           3     25.00%     25.00% |           4     33.33%     58.33% |           0      0.00%     58.33% |           2     16.67%     75.00% |           1      8.33%     83.33% |           2     16.67%    100.00% (Unspecified)
system.caches.L2Cache_Controller.MT_MB.L1_GETS::total           12                       (Unspecified)
system.caches.L2Cache_Controller.MT_MB.Exclusive_Unblock |      584475     12.56%     12.56% |      580910     12.49%     25.05% |      580787     12.48%     37.53% |      581949     12.51%     50.04% |      579343     12.45%     62.49% |      582480     12.52%     75.01% |      581839     12.51%     87.52% |      580843     12.48%    100.00% (Unspecified)
system.caches.L2Cache_Controller.MT_MB.Exclusive_Unblock::total      4652626                       (Unspecified)
system.caches.L2Cache_Controller.MT_IIB.L1_GETS |          21     11.67%     11.67% |          29     16.11%     27.78% |           1      0.56%     28.33% |           0      0.00%     28.33% |           1      0.56%     28.89% |           6      3.33%     32.22% |         121     67.22%     99.44% |           1      0.56%    100.00% (Unspecified)
system.caches.L2Cache_Controller.MT_IIB.L1_GETS::total          180                       (Unspecified)
system.caches.L2Cache_Controller.MT_IIB.L1_PUTX |           1     16.67%     16.67% |           1     16.67%     33.33% |           0      0.00%     33.33% |           0      0.00%     33.33% |           2     33.33%     66.67% |           1     16.67%     83.33% |           0      0.00%     83.33% |           1     16.67%    100.00% (Unspecified)
system.caches.L2Cache_Controller.MT_IIB.L1_PUTX::total            6                       (Unspecified)
system.caches.L2Cache_Controller.MT_IIB.WB_Data |       18906     12.74%     12.74% |       17510     11.80%     24.54% |       18450     12.44%     36.98% |       18902     12.74%     49.72% |       18503     12.47%     62.19% |       18650     12.57%     74.76% |       18542     12.50%     87.26% |       18908     12.74%    100.00% (Unspecified)
system.caches.L2Cache_Controller.MT_IIB.WB_Data::total       148371                       (Unspecified)
system.caches.L2Cache_Controller.MT_IIB.WB_Data_clean |       52903     12.62%     12.62% |       51764     12.35%     24.97% |       52395     12.50%     37.47% |       52778     12.59%     50.07% |       52437     12.51%     62.58% |       52183     12.45%     75.03% |       52520     12.53%     87.56% |       52150     12.44%    100.00% (Unspecified)
system.caches.L2Cache_Controller.MT_IIB.WB_Data_clean::total       419130                       (Unspecified)
system.caches.L2Cache_Controller.MT_IIB.Unblock |           6      9.84%      9.84% |           4      6.56%     16.39% |           8     13.11%     29.51% |          11     18.03%     47.54% |           8     13.11%     60.66% |           9     14.75%     75.41% |           8     13.11%     88.52% |           7     11.48%    100.00% (Unspecified)
system.caches.L2Cache_Controller.MT_IIB.Unblock::total           61                       (Unspecified)
system.caches.L2Cache_Controller.MT_IB.WB_Data |           0      0.00%      0.00% |           1      8.33%      8.33% |           2     16.67%     25.00% |           1      8.33%     33.33% |           4     33.33%     66.67% |           1      8.33%     75.00% |           3     25.00%    100.00% |           0      0.00%    100.00% (Unspecified)
system.caches.L2Cache_Controller.MT_IB.WB_Data::total           12                       (Unspecified)
system.caches.L2Cache_Controller.MT_IB.WB_Data_clean |           6     12.24%     12.24% |           3      6.12%     18.37% |           6     12.24%     30.61% |          10     20.41%     51.02% |           4      8.16%     59.18% |           8     16.33%     75.51% |           5     10.20%     85.71% |           7     14.29%    100.00% (Unspecified)
system.caches.L2Cache_Controller.MT_IB.WB_Data_clean::total           49                       (Unspecified)
system.caches.L2Cache_Controller.MT_SB.L1_GETS |           4     57.14%     57.14% |           3     42.86%    100.00% |           0      0.00%    100.00% |           0      0.00%    100.00% |           0      0.00%    100.00% |           0      0.00%    100.00% |           0      0.00%    100.00% |           0      0.00%    100.00% (Unspecified)
system.caches.L2Cache_Controller.MT_SB.L1_GETS::total            7                       (Unspecified)
system.caches.L2Cache_Controller.MT_SB.L1_UPGRADE |           0      0.00%      0.00% |           0      0.00%      0.00% |           0      0.00%      0.00% |           0      0.00%      0.00% |           0      0.00%      0.00% |           1      1.64%      1.64% |          60     98.36%    100.00% |           0      0.00%    100.00% (Unspecified)
system.caches.L2Cache_Controller.MT_SB.L1_UPGRADE::total           61                       (Unspecified)
system.caches.L2Cache_Controller.MT_SB.Unblock |       71809     12.65%     12.65% |       69274     12.21%     24.86% |       70845     12.48%     37.34% |       71680     12.63%     49.97% |       70940     12.50%     62.48% |       70833     12.48%     74.96% |       71062     12.52%     87.48% |       71058     12.52%    100.00% (Unspecified)
system.caches.L2Cache_Controller.MT_SB.Unblock::total       567501                       (Unspecified)
system.caches.RequestType.LD.latency_hist_seqr::bucket_size          512                       (Unspecified)
system.caches.RequestType.LD.latency_hist_seqr::max_bucket         5119                       (Unspecified)
system.caches.RequestType.LD.latency_hist_seqr::samples     65824268                       (Unspecified)
system.caches.RequestType.LD.latency_hist_seqr::mean    31.239424                       (Unspecified)
system.caches.RequestType.LD.latency_hist_seqr::gmean     1.647892                       (Unspecified)
system.caches.RequestType.LD.latency_hist_seqr::stdev   134.744941                       (Unspecified)
system.caches.RequestType.LD.latency_hist_seqr |    64506596     98.00%     98.00% |     1251026      1.90%     99.90% |        6120      0.01%     99.91% |       13438      0.02%     99.93% |       39753      0.06%     99.99% |        7302      0.01%    100.00% |          33      0.00%    100.00% |           0      0.00%    100.00% |           0      0.00%    100.00% |           0      0.00%    100.00% (Unspecified)
system.caches.RequestType.LD.latency_hist_seqr::total     65824268                       (Unspecified)
system.caches.RequestType.LD.hit_latency_hist_seqr::bucket_size            1                       (Unspecified)
system.caches.RequestType.LD.hit_latency_hist_seqr::max_bucket            9                       (Unspecified)
system.caches.RequestType.LD.hit_latency_hist_seqr::samples     58700240                       (Unspecified)
system.caches.RequestType.LD.hit_latency_hist_seqr::mean     1.006638                       (Unspecified)
system.caches.RequestType.LD.hit_latency_hist_seqr::gmean     1.004593                       (Unspecified)
system.caches.RequestType.LD.hit_latency_hist_seqr::stdev     0.081989                       (Unspecified)
system.caches.RequestType.LD.hit_latency_hist_seqr |           0      0.00%      0.00% |    58314338     99.34%     99.34% |      382141      0.65%     99.99% |        3761      0.01%    100.00% |           0      0.00%    100.00% |           0      0.00%    100.00% |           0      0.00%    100.00% |           0      0.00%    100.00% |           0      0.00%    100.00% |           0      0.00%    100.00% (Unspecified)
system.caches.RequestType.LD.hit_latency_hist_seqr::total     58700240                       (Unspecified)
system.caches.RequestType.LD.miss_latency_hist_seqr::bucket_size          512                       (Unspecified)
system.caches.RequestType.LD.miss_latency_hist_seqr::max_bucket         5119                       (Unspecified)
system.caches.RequestType.LD.miss_latency_hist_seqr::samples      7124028                       (Unspecified)
system.caches.RequestType.LD.miss_latency_hist_seqr::mean   280.350153                       (Unspecified)
system.caches.RequestType.LD.miss_latency_hist_seqr::gmean    97.267852                       (Unspecified)
system.caches.RequestType.LD.miss_latency_hist_seqr::stdev   313.323010                       (Unspecified)
system.caches.RequestType.LD.miss_latency_hist_seqr |     5806356     81.50%     81.50% |     1251026     17.56%     99.06% |        6120      0.09%     99.15% |       13438      0.19%     99.34% |       39753      0.56%     99.90% |        7302      0.10%    100.00% |          33      0.00%    100.00% |           0      0.00%    100.00% |           0      0.00%    100.00% |           0      0.00%    100.00% (Unspecified)
system.caches.RequestType.LD.miss_latency_hist_seqr::total      7124028                       (Unspecified)
system.caches.RequestType.ST.latency_hist_seqr::bucket_size          512                       (Unspecified)
system.caches.RequestType.ST.latency_hist_seqr::max_bucket         5119                       (Unspecified)
system.caches.RequestType.ST.latency_hist_seqr::samples      2069177                       (Unspecified)
system.caches.RequestType.ST.latency_hist_seqr::mean     2.742026                       (Unspecified)
system.caches.RequestType.ST.latency_hist_seqr::gmean     1.023104                       (Unspecified)
system.caches.RequestType.ST.latency_hist_seqr::stdev    34.938746                       (Unspecified)
system.caches.RequestType.ST.latency_hist_seqr |     2066570     99.87%     99.87% |        2374      0.11%     99.99% |         108      0.01%     99.99% |          27      0.00%    100.00% |          76      0.00%    100.00% |          20      0.00%    100.00% |           2      0.00%    100.00% |           0      0.00%    100.00% |           0      0.00%    100.00% |           0      0.00%    100.00% (Unspecified)
system.caches.RequestType.ST.latency_hist_seqr::total      2069177                       (Unspecified)
system.caches.RequestType.ST.hit_latency_hist_seqr::bucket_size          512                       (Unspecified)
system.caches.RequestType.ST.hit_latency_hist_seqr::max_bucket         5119                       (Unspecified)
system.caches.RequestType.ST.hit_latency_hist_seqr::samples      2060995                       (Unspecified)
system.caches.RequestType.ST.hit_latency_hist_seqr::mean     1.044580                       (Unspecified)
system.caches.RequestType.ST.hit_latency_hist_seqr::gmean     1.001072                       (Unspecified)
system.caches.RequestType.ST.hit_latency_hist_seqr::stdev     6.180755                       (Unspecified)
system.caches.RequestType.ST.hit_latency_hist_seqr |     2060901    100.00%    100.00% |          75      0.00%    100.00% |          18      0.00%    100.00% |           0      0.00%    100.00% |           0      0.00%    100.00% |           0      0.00%    100.00% |           1      0.00%    100.00% |           0      0.00%    100.00% |           0      0.00%    100.00% |           0      0.00%    100.00% (Unspecified)
system.caches.RequestType.ST.hit_latency_hist_seqr::total      2060995                       (Unspecified)
system.caches.RequestType.ST.miss_latency_hist_seqr::bucket_size          512                       (Unspecified)
system.caches.RequestType.ST.miss_latency_hist_seqr::max_bucket         5119                       (Unspecified)
system.caches.RequestType.ST.miss_latency_hist_seqr::samples         8182                       (Unspecified)
system.caches.RequestType.ST.miss_latency_hist_seqr::mean   430.318137                       (Unspecified)
system.caches.RequestType.ST.miss_latency_hist_seqr::gmean   246.269194                       (Unspecified)
system.caches.RequestType.ST.miss_latency_hist_seqr::stdev   339.934664                       (Unspecified)
system.caches.RequestType.ST.miss_latency_hist_seqr |        5669     69.29%     69.29% |        2299     28.10%     97.38% |          90      1.10%     98.48% |          27      0.33%     98.81% |          76      0.93%     99.74% |          20      0.24%     99.99% |           1      0.01%    100.00% |           0      0.00%    100.00% |           0      0.00%    100.00% |           0      0.00%    100.00% (Unspecified)
system.caches.RequestType.ST.miss_latency_hist_seqr::total         8182                       (Unspecified)
system.caches.RequestType.IFETCH.latency_hist_seqr::bucket_size          512                       (Unspecified)
system.caches.RequestType.IFETCH.latency_hist_seqr::max_bucket         5119                       (Unspecified)
system.caches.RequestType.IFETCH.latency_hist_seqr::samples     28705808                       (Unspecified)
system.caches.RequestType.IFETCH.latency_hist_seqr::mean     1.141399                       (Unspecified)
system.caches.RequestType.IFETCH.latency_hist_seqr::gmean     1.005012                       (Unspecified)
system.caches.RequestType.IFETCH.latency_hist_seqr::stdev     7.049325                       (Unspecified)
system.caches.RequestType.IFETCH.latency_hist_seqr |    28705102    100.00%    100.00% |         601      0.00%    100.00% |          53      0.00%    100.00% |          40      0.00%    100.00% |          11      0.00%    100.00% |           1      0.00%    100.00% |           0      0.00%    100.00% |           0      0.00%    100.00% |           0      0.00%    100.00% |           0      0.00%    100.00% (Unspecified)
system.caches.RequestType.IFETCH.latency_hist_seqr::total     28705808                       (Unspecified)
system.caches.RequestType.IFETCH.hit_latency_hist_seqr::bucket_size            1                       (Unspecified)
[...]
system.o3Cpu7.iew.squashCycles                 582486                       # Number of cycles IEW is squashing (Cycle)
system.o3Cpu7.iew.blockCycles               131866006                       # Number of cycles IEW is blocking (Cycle)
system.o3Cpu7.iew.unblockCycles               2546735                       # Number of cycles IEW is unblocking (Cycle)
system.o3Cpu7.iew.dispatchedInsts            88592608                       # Number of instructions dispatched to IQ (Count)
system.o3Cpu7.iew.dispSquashedInsts              1097                       # Number of squashed instructions skipped by dispatch (Count)
system.o3Cpu7.iew.dispLoadInsts              17760477                       # Number of dispatched load instructions (Count)
system.o3Cpu7.iew.dispStoreInsts              1906523                       # Number of dispatched store instructions (Count)
system.o3Cpu7.iew.dispNonSpecInsts            1359580                       # Number of dispatched non-speculative instructions (Count)
system.o3Cpu7.iew.iqFullEvents                 543341                       # Number of times the IQ has become full, causing a stall (Count)
system.o3Cpu7.iew.lsqFullEvents               1715140                       # Number of times the LSQ has become full, causing a stall (Count)
system.o3Cpu7.iew.memOrderViolationEvents       239232                       # Number of memory order violations (Count)
system.o3Cpu7.iew.predictedTakenIncorrect       143166                       # Number of branches that were predicted taken incorrectly (Count)
system.o3Cpu7.iew.predictedNotTakenIncorrect       231134                       # Number of branches that were predicted not taken incorrectly (Count)
system.o3Cpu7.iew.branchMispredicts            374300                       # Number of branch mispredicts detected at execute (Count)
system.o3Cpu7.iew.instsToCommit              60302125                       # Cumulative count of insts sent to commit (Count)
system.o3Cpu7.iew.writebackCount             60246879                       # Cumulative count of insts written-back (Count)
system.o3Cpu7.iew.producerInst               48095640                       # Number of instructions producing a value (Count)
system.o3Cpu7.iew.consumerInst               73027578                       # Number of instructions consuming a value (Count)
system.o3Cpu7.iew.wbRate                     0.319265                       # Insts written-back per cycle ((Count/Cycle))
system.o3Cpu7.iew.wbFanout                   0.658596                       # Average fanout of values written-back ((Count/Count))
system.o3Cpu7.interrupts.clk_domain.clock         3200                       # Clock period in ticks (Tick)
system.o3Cpu7.lsq0.forwLoads                     4911                       # Number of loads that had data forwarded from stores (Count)
system.o3Cpu7.lsq0.squashedLoads             12097979                       # Number of loads squashed (Count)
system.o3Cpu7.lsq0.ignoredResponses                 2                       # Number of memory responses ignored because the instruction is squashed (Count)
system.o3Cpu7.lsq0.memOrderViolation           239232                       # Number of memory ordering violations (Count)
system.o3Cpu7.lsq0.squashedStores             1165873                       # Number of stores squashed (Count)
system.o3Cpu7.lsq0.rescheduledLoads                30                       # Number of loads that were rescheduled (Count)
system.o3Cpu7.lsq0.blockedByCache                 322                       # Number of times an access to memory failed due to the cache being blocked (Count)
system.o3Cpu7.lsq0.loadToUse::samples         5662473                       # Distribution of cycle latency between the first time a load is issued and its completion (Unspecified)
system.o3Cpu7.lsq0.loadToUse::mean          34.094134                       # Distribution of cycle latency between the first time a load is issued and its completion (Unspecified)
system.o3Cpu7.lsq0.loadToUse::stdev        136.126171                       # Distribution of cycle latency between the first time a load is issued and its completion (Unspecified)
system.o3Cpu7.lsq0.loadToUse::0-9             5078481     89.69%     89.69% # Distribution of cycle latency between the first time a load is issued and its completion (Unspecified)
system.o3Cpu7.lsq0.loadToUse::10-19            132384      2.34%     92.02% # Distribution of cycle latency between the first time a load is issued and its completion (Unspecified)
system.o3Cpu7.lsq0.loadToUse::20-29             91876      1.62%     93.65% # Distribution of cycle latency between the first time a load is issued and its completion (Unspecified)
system.o3Cpu7.lsq0.loadToUse::30-39              9276      0.16%     93.81% # Distribution of cycle latency between the first time a load is issued and its completion (Unspecified)
system.o3Cpu7.lsq0.loadToUse::40-49              3133      0.06%     93.87% # Distribution of cycle latency between the first time a load is issued and its completion (Unspecified)
system.o3Cpu7.lsq0.loadToUse::50-59              1202      0.02%     93.89% # Distribution of cycle latency between the first time a load is issued and its completion (Unspecified)
system.o3Cpu7.lsq0.loadToUse::60-69               580      0.01%     93.90% # Distribution of cycle latency between the first time a load is issued and its completion (Unspecified)
system.o3Cpu7.lsq0.loadToUse::70-79               567      0.01%     93.91% # Distribution of cycle latency between the first time a load is issued and its completion (Unspecified)
system.o3Cpu7.lsq0.loadToUse::80-89               455      0.01%     93.92% # Distribution of cycle latency between the first time a load is issued and its completion (Unspecified)
system.o3Cpu7.lsq0.loadToUse::90-99               318      0.01%     93.92% # Distribution of cycle latency between the first time a load is issued and its completion (Unspecified)
system.o3Cpu7.lsq0.loadToUse::100-109             306      0.01%     93.93% # Distribution of cycle latency between the first time a load is issued and its completion (Unspecified)
system.o3Cpu7.lsq0.loadToUse::110-119             301      0.01%     93.93% # Distribution of cycle latency between the first time a load is issued and its completion (Unspecified)
system.o3Cpu7.lsq0.loadToUse::120-129             337      0.01%     93.94% # Distribution of cycle latency between the first time a load is issued and its completion (Unspecified)
system.o3Cpu7.lsq0.loadToUse::130-139             357      0.01%     93.94% # Distribution of cycle latency between the first time a load is issued and its completion (Unspecified)
system.o3Cpu7.lsq0.loadToUse::140-149             290      0.01%     93.95% # Distribution of cycle latency between the first time a load is issued and its completion (Unspecified)
system.o3Cpu7.lsq0.loadToUse::150-159             400      0.01%     93.96% # Distribution of cycle latency between the first time a load is issued and its completion (Unspecified)
system.o3Cpu7.lsq0.loadToUse::160-169             456      0.01%     93.96% # Distribution of cycle latency between the first time a load is issued and its completion (Unspecified)
system.o3Cpu7.lsq0.loadToUse::170-179             627      0.01%     93.98% # Distribution of cycle latency between the first time a load is issued and its completion (Unspecified)
system.o3Cpu7.lsq0.loadToUse::180-189             738      0.01%     93.99% # Distribution of cycle latency between the first time a load is issued and its completion (Unspecified)
system.o3Cpu7.lsq0.loadToUse::190-199             971      0.02%     94.01% # Distribution of cycle latency between the first time a load is issued and its completion (Unspecified)
system.o3Cpu7.lsq0.loadToUse::200-209            1044      0.02%     94.02% # Distribution of cycle latency between the first time a load is issued and its completion (Unspecified)
system.o3Cpu7.lsq0.loadToUse::210-219            1116      0.02%     94.04% # Distribution of cycle latency between the first time a load is issued and its completion (Unspecified)
system.o3Cpu7.lsq0.loadToUse::220-229             961      0.02%     94.06% # Distribution of cycle latency between the first time a load is issued and its completion (Unspecified)
system.o3Cpu7.lsq0.loadToUse::230-239             796      0.01%     94.08% # Distribution of cycle latency between the first time a load is issued and its completion (Unspecified)
system.o3Cpu7.lsq0.loadToUse::240-249             632      0.01%     94.09% # Distribution of cycle latency between the first time a load is issued and its completion (Unspecified)
system.o3Cpu7.lsq0.loadToUse::250-259             628      0.01%     94.10% # Distribution of cycle latency between the first time a load is issued and its completion (Unspecified)
system.o3Cpu7.lsq0.loadToUse::260-269             568      0.01%     94.11% # Distribution of cycle latency between the first time a load is issued and its completion (Unspecified)
system.o3Cpu7.lsq0.loadToUse::270-279             576      0.01%     94.12% # Distribution of cycle latency between the first time a load is issued and its completion (Unspecified)
system.o3Cpu7.lsq0.loadToUse::280-289            2197      0.04%     94.16% # Distribution of cycle latency between the first time a load is issued and its completion (Unspecified)
system.o3Cpu7.lsq0.loadToUse::290-299            3047      0.05%     94.21% # Distribution of cycle latency between the first time a load is issued and its completion (Unspecified)
system.o3Cpu7.lsq0.loadToUse::overflows        327853      5.79%    100.00% # Distribution of cycle latency between the first time a load is issued and its completion (Unspecified)
system.o3Cpu7.lsq0.loadToUse::min_value             2                       # Distribution of cycle latency between the first time a load is issued and its completion (Unspecified)
system.o3Cpu7.lsq0.loadToUse::max_value          3191                       # Distribution of cycle latency between the first time a load is issued and its completion (Unspecified)
system.o3Cpu7.lsq0.loadToUse::total           5662473                       # Distribution of cycle latency between the first time a load is issued and its completion (Unspecified)
system.o3Cpu7.mmu.dtb.rdAccesses              9609384                       # TLB accesses on read requests (Count)
system.o3Cpu7.mmu.dtb.wrAccesses               743620                       # TLB accesses on write requests (Count)
system.o3Cpu7.mmu.dtb.rdMisses                 132236                       # TLB misses on read requests (Count)
system.o3Cpu7.mmu.dtb.wrMisses                   1811                       # TLB misses on write requests (Count)
system.o3Cpu7.mmu.dtb.walker.power_state.pwrStateResidencyTicks::UNDEFINED  38754973800                       # Cumulative time (in ticks) in various power states (Tick)
system.o3Cpu7.mmu.itb.rdAccesses                    0                       # TLB accesses on read requests (Count)
system.o3Cpu7.mmu.itb.wrAccesses              3587928                       # TLB accesses on write requests (Count)
system.o3Cpu7.mmu.itb.rdMisses                      0                       # TLB misses on read requests (Count)
system.o3Cpu7.mmu.itb.wrMisses                    135                       # TLB misses on write requests (Count)
system.o3Cpu7.mmu.itb.walker.power_state.pwrStateResidencyTicks::UNDEFINED  38754973800                       # Cumulative time (in ticks) in various power states (Tick)
system.o3Cpu7.power_state.pwrStateResidencyTicks::OFF  38754973800                       # Cumulative time (in ticks) in various power states (Tick)
system.o3Cpu7.rename.squashCycles              582486                       # Number of cycles rename is squashing (Cycle)
system.o3Cpu7.rename.idleCycles               4354921                       # Number of cycles rename is idle (Cycle)
system.o3Cpu7.rename.blockCycles            157478597                       # Number of cycles rename is blocking (Cycle)
system.o3Cpu7.rename.serializeStallCycles       267345                       # count of cycles rename stalled for serializing inst (Cycle)
system.o3Cpu7.rename.runCycles               10223024                       # Number of cycles rename is running (Cycle)
system.o3Cpu7.rename.unblockCycles           15729590                       # Number of cycles rename is unblocking (Cycle)
system.o3Cpu7.rename.renamedInsts            90908833                       # Number of instructions processed by rename (Count)
system.o3Cpu7.rename.ROBFullEvents             183158                       # Number of times rename has blocked due to ROB full (Count)
system.o3Cpu7.rename.IQFullEvents             8631599                       # Number of times rename has blocked due to IQ full (Count)
system.o3Cpu7.rename.LQFullEvents             6776615                       # Number of times rename has blocked due to LQ full (Count)
system.o3Cpu7.rename.SQFullEvents               36650                       # Number of times rename has blocked due to SQ full (Count)
system.o3Cpu7.rename.renamedOperands        166421850                       # Number of destination operands rename has renamed (Count)
system.o3Cpu7.rename.lookups                321579435                       # Number of register rename lookups that rename has made (Count)
system.o3Cpu7.rename.intLookups             112434144                       # Number of integer rename lookups (Count)
system.o3Cpu7.rename.fpLookups                3124542                       # Number of floating rename lookups (Count)
system.o3Cpu7.rename.committedMaps           50555564                       # Number of HB maps that are committed (Count)
system.o3Cpu7.rename.undoneMaps             115866052                       # Number of HB maps that are undone due to squashing (Count)
system.o3Cpu7.rename.serializing                 1625                       # count of serializing insts renamed (Count)
system.o3Cpu7.rename.tempSerializing             1681                       # count of temporary serializing insts renamed (Count)
system.o3Cpu7.rename.skidInsts               23622176                       # count of insts added to the skid buffer (Count)
system.o3Cpu7.rob.reads                     267505051                       # The number of ROB reads (Count)
system.o3Cpu7.rob.writes                    185627531                       # The number of ROB writes (Count)
system.o3Cpu7.thread_0.numInsts              16238181                       # Number of Instructions committed (Count)
system.o3Cpu7.thread_0.numOps                28048124                       # Number of Ops committed (Count)
system.o3Cpu7.thread_0.numMemRefs                   0                       # Number of Memory References (Count)
system.pc.bad_addr.power_state.pwrStateResidencyTicks::UNDEFINED  38754973800                       # Cumulative time (in ticks) in various power states (Tick)
system.pc.com_1.power_state.pwrStateResidencyTicks::UNDEFINED  38754973800                       # Cumulative time (in ticks) in various power states (Tick)
system.pc.default_bus.power_state.pwrStateResidencyTicks::UNDEFINED  38754973800                       # Cumulative time (in ticks) in various power states (Tick)
system.pc.empty_isa.power_state.pwrStateResidencyTicks::UNDEFINED  38754973800                       # Cumulative time (in ticks) in various power states (Tick)
system.pc.fake_com_2.power_state.pwrStateResidencyTicks::UNDEFINED  38754973800                       # Cumulative time (in ticks) in various power states (Tick)
system.pc.fake_com_3.power_state.pwrStateResidencyTicks::UNDEFINED  38754973800                       # Cumulative time (in ticks) in various power states (Tick)
system.pc.fake_com_4.power_state.pwrStateResidencyTicks::UNDEFINED  38754973800                       # Cumulative time (in ticks) in various power states (Tick)
system.pc.fake_floppy.power_state.pwrStateResidencyTicks::UNDEFINED  38754973800                       # Cumulative time (in ticks) in various power states (Tick)
system.pc.pci_host.power_state.pwrStateResidencyTicks::UNDEFINED  38754973800                       # Cumulative time (in ticks) in various power states (Tick)
system.pc.south_bridge.cmos.power_state.pwrStateResidencyTicks::UNDEFINED  38754973800                       # Cumulative time (in ticks) in various power states (Tick)
system.pc.south_bridge.dma1.power_state.pwrStateResidencyTicks::UNDEFINED  38754973800                       # Cumulative time (in ticks) in various power states (Tick)
system.pc.south_bridge.ide.disks0.IdeDisk.dmaReadFullPages            0                       # Number of full page size DMA reads (not PRD). (Count)
system.pc.south_bridge.ide.disks0.IdeDisk.dmaReadBytes            0                       # Number of bytes transfered via DMA reads (not PRD). (Byte)
system.pc.south_bridge.ide.disks0.IdeDisk.dmaReadTxs            0                       # Number of DMA read transactions (not PRD). (Count)
system.pc.south_bridge.ide.disks0.IdeDisk.dmaWriteFullPages            0                       # Number of full page size DMA writes. (Count)
system.pc.south_bridge.ide.disks0.IdeDisk.dmaWriteBytes            0                       # Number of bytes transfered via DMA writes. (Byte)
system.pc.south_bridge.ide.disks0.IdeDisk.dmaWriteTxs            0                       # Number of DMA write transactions. (Count)
system.pc.south_bridge.ide.disks1.IdeDisk.dmaReadFullPages            0                       # Number of full page size DMA reads (not PRD). (Count)
system.pc.south_bridge.ide.disks1.IdeDisk.dmaReadBytes            0                       # Number of bytes transfered via DMA reads (not PRD). (Byte)
system.pc.south_bridge.ide.disks1.IdeDisk.dmaReadTxs            0                       # Number of DMA read transactions (not PRD). (Count)
system.pc.south_bridge.ide.disks1.IdeDisk.dmaWriteFullPages            0                       # Number of full page size DMA writes. (Count)
system.pc.south_bridge.ide.disks1.IdeDisk.dmaWriteBytes            0                       # Number of bytes transfered via DMA writes. (Byte)
system.pc.south_bridge.ide.disks1.IdeDisk.dmaWriteTxs            0                       # Number of DMA write transactions. (Count)
system.pc.south_bridge.ide.power_state.pwrStateResidencyTicks::UNDEFINED  38754973800                       # Cumulative time (in ticks) in various power states (Tick)
system.pc.south_bridge.io_apic.power_state.pwrStateResidencyTicks::UNDEFINED  38754973800                       # Cumulative time (in ticks) in various power states (Tick)
system.pc.south_bridge.keyboard.power_state.pwrStateResidencyTicks::UNDEFINED  38754973800                       # Cumulative time (in ticks) in various power states (Tick)
system.pc.south_bridge.pic1.power_state.pwrStateResidencyTicks::UNDEFINED  38754973800                       # Cumulative time (in ticks) in various power states (Tick)
system.pc.south_bridge.pic2.power_state.pwrStateResidencyTicks::UNDEFINED  38754973800                       # Cumulative time (in ticks) in various power states (Tick)
system.pc.south_bridge.pit.power_state.pwrStateResidencyTicks::UNDEFINED  38754973800                       # Cumulative time (in ticks) in various power states (Tick)
system.pc.south_bridge.speaker.power_state.pwrStateResidencyTicks::UNDEFINED  38754973800                       # Cumulative time (in ticks) in various power states (Tick)
system.workload.inst.arm                            0                       # number of arm instructions executed (Count)
system.workload.inst.quiesce                        0                       # number of quiesce instructions executed (Count)

---------- End Simulation Statistics   ----------
