
---------- Begin Simulation Statistics ----------
simSeconds                                   0.029267                       # Number of seconds simulated (Second)
simTicks                                  29266748960                       # Number of ticks simulated (Tick)
finalTick                                264581953515600                       # Number of ticks from beginning of simulation (restored from checkpoints and never reset) (Tick)
simFreq                                  1000000000000                       # The number of ticks per simulated second ((Tick/Second))
hostSeconds                                   9282.57                       # Real time elapsed on the host (Second)
hostTickRate                                  3152872                       # The number of ticks simulated per host second (ticks/s) ((Tick/Second))
hostMemory                                   19948896                       # Number of bytes of host memory used (Byte)
simInsts                                    344306144                       # Number of instructions simulated (Count)
simOps                                      577161554                       # Number of ops (including micro ops) simulated (Count)
hostInstRate                                    37092                       # Simulator instruction rate (inst/s) ((Count/Second))
hostOpRate                                      62177                       # Simulator op (including micro ops) rate (op/s) ((Count/Second))
system.caches.delayHistogram::bucket_size          256                       # delay histogram for all message (Unspecified)
system.caches.delayHistogram::max_bucket         2559                       # delay histogram for all message (Unspecified)
system.caches.delayHistogram::samples        27911965                       # delay histogram for all message (Unspecified)
system.caches.delayHistogram::mean           0.312412                       # delay histogram for all message (Unspecified)
system.caches.delayHistogram::stdev          1.797032                       # delay histogram for all message (Unspecified)
system.caches.delayHistogram             |    27911954    100.00%    100.00% |           6      0.00%    100.00% |           0      0.00%    100.00% |           1      0.00%    100.00% |           0      0.00%    100.00% |           1      0.00%    100.00% |           0      0.00%    100.00% |           2      0.00%    100.00% |           1      0.00%    100.00% |           0      0.00%    100.00% # delay histogram for all message (Unspecified)
system.caches.delayHistogram::total          27911965                       # delay histogram for all message (Unspecified)
system.caches.m_outstandReqHistSeqr::bucket_size            2                       (Unspecified)
system.caches.m_outstandReqHistSeqr::max_bucket           19                       (Unspecified)
system.caches.m_outstandReqHistSeqr::samples    175485257                       (Unspecified)
system.caches.m_outstandReqHistSeqr::mean     3.388635                       (Unspecified)
system.caches.m_outstandReqHistSeqr::gmean     2.353367                       (Unspecified)
system.caches.m_outstandReqHistSeqr::stdev     3.313759                       (Unspecified)
system.caches.m_outstandReqHistSeqr      |    62914019     35.85%     35.85% |    59564248     33.94%     69.79% |    20954595     11.94%     81.73% |    11404194      6.50%     88.23% |     7788744      4.44%     92.67% |     5077271      2.89%     95.57% |     3325987      1.90%     97.46% |     2355631      1.34%     98.80% |     2100568      1.20%    100.00% |           0      0.00%    100.00% (Unspecified)
system.caches.m_outstandReqHistSeqr::total    175485257                       (Unspecified)
system.caches.m_latencyHistSeqr::bucket_size          512                       (Unspecified)
system.caches.m_latencyHistSeqr::max_bucket         5119                       (Unspecified)
system.caches.m_latencyHistSeqr::samples    175505618                       (Unspecified)
system.caches.m_latencyHistSeqr::mean       10.451442                       (Unspecified)
system.caches.m_latencyHistSeqr::gmean       1.156633                       (Unspecified)
system.caches.m_latencyHistSeqr::stdev      76.055688                       (Unspecified)
system.caches.m_latencyHistSeqr          |   174628434     99.50%     99.50% |      800424      0.46%     99.96% |       24271      0.01%     99.97% |       13582      0.01%     99.98% |       32331      0.02%    100.00% |        5983      0.00%    100.00% |         563      0.00%    100.00% |          30      0.00%    100.00% |           0      0.00%    100.00% |           0      0.00%    100.00% (Unspecified)
system.caches.m_latencyHistSeqr::total      175505618                       (Unspecified)
system.caches.m_hitLatencyHistSeqr::bucket_size          512                       (Unspecified)
system.caches.m_hitLatencyHistSeqr::max_bucket         5119                       (Unspecified)
system.caches.m_hitLatencyHistSeqr::samples    170342383                       (Unspecified)
system.caches.m_hitLatencyHistSeqr::mean     1.002077                       (Unspecified)
system.caches.m_hitLatencyHistSeqr::gmean     1.000671                       (Unspecified)
system.caches.m_hitLatencyHistSeqr::stdev     0.939330                       (Unspecified)
system.caches.m_hitLatencyHistSeqr       |   170342258    100.00%    100.00% |          96      0.00%    100.00% |          24      0.00%    100.00% |           1      0.00%    100.00% |           2      0.00%    100.00% |           1      0.00%    100.00% |           1      0.00%    100.00% |           0      0.00%    100.00% |           0      0.00%    100.00% |           0      0.00%    100.00% (Unspecified)
system.caches.m_hitLatencyHistSeqr::total    170342383                       (Unspecified)
system.caches.m_missLatencyHistSeqr::bucket_size          512                       (Unspecified)
system.caches.m_missLatencyHistSeqr::max_bucket         5119                       (Unspecified)
system.caches.m_missLatencyHistSeqr::samples      5163235                       (Unspecified)
system.caches.m_missLatencyHistSeqr::mean   322.199278                       (Unspecified)
system.caches.m_missLatencyHistSeqr::gmean   137.561059                       (Unspecified)
system.caches.m_missLatencyHistSeqr::stdev   310.581010                       (Unspecified)
system.caches.m_missLatencyHistSeqr      |     4286176     83.01%     83.01% |      800328     15.50%     98.51% |       24247      0.47%     98.98% |       13581      0.26%     99.25% |       32329      0.63%     99.87% |        5982      0.12%     99.99% |         562      0.01%    100.00% |          30      0.00%    100.00% |           0      0.00%    100.00% |           0      0.00%    100.00% (Unspecified)
system.caches.m_missLatencyHistSeqr::total      5163235                       (Unspecified)
system.caches.delayVCHist.vnet_0::bucket_size          256                       # delay histogram for vnet_0 (Unspecified)
system.caches.delayVCHist.vnet_0::max_bucket         2559                       # delay histogram for vnet_0 (Unspecified)
system.caches.delayVCHist.vnet_0::samples     12039205                       # delay histogram for vnet_0 (Unspecified)
system.caches.delayVCHist.vnet_0::mean       0.485704                       # delay histogram for vnet_0 (Unspecified)
system.caches.delayVCHist.vnet_0::stdev      2.302944                       # delay histogram for vnet_0 (Unspecified)
system.caches.delayVCHist.vnet_0         |    12039194    100.00%    100.00% |           6      0.00%    100.00% |           0      0.00%    100.00% |           1      0.00%    100.00% |           0      0.00%    100.00% |           1      0.00%    100.00% |           0      0.00%    100.00% |           2      0.00%    100.00% |           1      0.00%    100.00% |           0      0.00%    100.00% # delay histogram for vnet_0 (Unspecified)
system.caches.delayVCHist.vnet_0::total      12039205                       # delay histogram for vnet_0 (Unspecified)
system.caches.delayVCHist.vnet_1::bucket_size           16                       # delay histogram for vnet_1 (Unspecified)
system.caches.delayVCHist.vnet_1::max_bucket          159                       # delay histogram for vnet_1 (Unspecified)
system.caches.delayVCHist.vnet_1::samples     15615353                       # delay histogram for vnet_1 (Unspecified)
system.caches.delayVCHist.vnet_1::mean       0.183944                       # delay histogram for vnet_1 (Unspecified)
system.caches.delayVCHist.vnet_1::stdev      1.281435                       # delay histogram for vnet_1 (Unspecified)
system.caches.delayVCHist.vnet_1         |    15592744     99.86%     99.86% |       21570      0.14%     99.99% |         905      0.01%    100.00% |         117      0.00%    100.00% |          14      0.00%    100.00% |           3      0.00%    100.00% |           0      0.00%    100.00% |           0      0.00%    100.00% |           0      0.00%    100.00% |           0      0.00%    100.00% # delay histogram for vnet_1 (Unspecified)
system.caches.delayVCHist.vnet_1::total      15615353                       # delay histogram for vnet_1 (Unspecified)
system.caches.delayVCHist.vnet_2::bucket_size            1                       # delay histogram for vnet_2 (Unspecified)
system.caches.delayVCHist.vnet_2::max_bucket            9                       # delay histogram for vnet_2 (Unspecified)
system.caches.delayVCHist.vnet_2::samples       257407                       # delay histogram for vnet_2 (Unspecified)
system.caches.delayVCHist.vnet_2::mean       0.000676                       # delay histogram for vnet_2 (Unspecified)
system.caches.delayVCHist.vnet_2::stdev      0.036763                       # delay histogram for vnet_2 (Unspecified)
system.caches.delayVCHist.vnet_2         |      257320     99.97%     99.97% |           0      0.00%     99.97% |          87      0.03%    100.00% |           0      0.00%    100.00% |           0      0.00%    100.00% |           0      0.00%    100.00% |           0      0.00%    100.00% |           0      0.00%    100.00% |           0      0.00%    100.00% |           0      0.00%    100.00% # delay histogram for vnet_2 (Unspecified)
system.caches.delayVCHist.vnet_2::total        257407                       # delay histogram for vnet_2 (Unspecified)
system.caches.L1Cache_Controller.Load    |    12551641     12.73%     12.73% |    12444058     12.62%     25.35% |    11939626     12.11%     37.46% |    12258271     12.43%     49.90% |    11777671     11.95%     61.84% |    12264196     12.44%     74.28% |    12782244     12.97%     87.25% |    12572266     12.75%    100.00% (Unspecified)
system.caches.L1Cache_Controller.Load::total     98589973                       (Unspecified)
system.caches.L1Cache_Controller.Ifetch  |     7882577     12.47%     12.47% |     7854657     12.43%     24.89% |     7916699     12.52%     37.42% |     7874169     12.46%     49.87% |     7979330     12.62%     62.50% |     7939805     12.56%     75.06% |     7876362     12.46%     87.52% |     7891207     12.48%    100.00% (Unspecified)
system.caches.L1Cache_Controller.Ifetch::total     63214806                       (Unspecified)
system.caches.L1Cache_Controller.Store   |     1670389     12.19%     12.19% |     1662675     12.14%     24.33% |     1893986     13.82%     38.15% |     1666262     12.16%     50.31% |     1773022     12.94%     63.25% |     1696787     12.38%     75.64% |     1669499     12.19%     87.82% |     1668227     12.18%    100.00% (Unspecified)
system.caches.L1Cache_Controller.Store::total     13700847                       (Unspecified)
system.caches.L1Cache_Controller.Inv     |       25033     12.04%     12.04% |       24403     11.73%     23.77% |       30192     14.52%     38.28% |       23799     11.44%     49.72% |       25365     12.19%     61.92% |       26724     12.85%     74.77% |       25036     12.04%     86.80% |       27448     13.20%    100.00% (Unspecified)
system.caches.L1Cache_Controller.Inv::total       208000                       (Unspecified)
system.caches.L1Cache_Controller.L1_Replacement |      631846     12.43%     12.43% |      627355     12.34%     24.77% |      664379     13.07%     37.84% |      630605     12.40%     50.24% |      631395     12.42%     62.66% |      639137     12.57%     75.24% |      631016     12.41%     87.65% |      627917     12.35%    100.00% (Unspecified)
system.caches.L1Cache_Controller.L1_Replacement::total      5083650                       (Unspecified)
system.caches.L1Cache_Controller.Fwd_GETX |         858     12.38%     12.38% |         855     12.34%     24.72% |         903     13.03%     37.74% |         858     12.38%     50.12% |         889     12.83%     62.95% |         859     12.39%     75.34% |         856     12.35%     87.69% |         853     12.31%    100.00% (Unspecified)
system.caches.L1Cache_Controller.Fwd_GETX::total         6931                       (Unspecified)
system.caches.L1Cache_Controller.Fwd_GETS |        5705     13.43%     13.43% |        5340     12.57%     26.00% |        7632     17.97%     43.97% |        4518     10.64%     54.61% |        4842     11.40%     66.01% |        5151     12.13%     78.13% |        4663     10.98%     89.11% |        4625     10.89%    100.00% (Unspecified)
system.caches.L1Cache_Controller.Fwd_GETS::total        42476                       (Unspecified)
system.caches.L1Cache_Controller.Data    |          52     57.14%     57.14% |           0      0.00%     57.14% |          26     28.57%     85.71% |           2      2.20%     87.91% |           0      0.00%     87.91% |          10     10.99%     98.90% |           1      1.10%    100.00% |           0      0.00%    100.00% (Unspecified)
system.caches.L1Cache_Controller.Data::total           91                       (Unspecified)
system.caches.L1Cache_Controller.Data_Exclusive |      391320     12.45%     12.45% |      390638     12.43%     24.88% |      395783     12.59%     37.47% |      391466     12.45%     49.92% |      391100     12.44%     62.37% |      400507     12.74%     75.11% |      390979     12.44%     87.55% |      391442     12.45%    100.00% (Unspecified)
system.caches.L1Cache_Controller.Data_Exclusive::total      3143235                       (Unspecified)
system.caches.L1Cache_Controller.DataS_fromL1 |        5009     11.79%     11.79% |        6204     14.61%     26.40% |        5415     12.75%     39.15% |        4712     11.09%     50.24% |        5199     12.24%     62.48% |        5475     12.89%     75.37% |        5405     12.72%     88.09% |        5057     11.91%    100.00% (Unspecified)
system.caches.L1Cache_Controller.DataS_fromL1::total        42476                       (Unspecified)
system.caches.L1Cache_Controller.Data_all_Acks |      242874     12.34%     12.34% |      240063     12.20%     24.54% |      273490     13.90%     38.44% |      242460     12.32%     50.76% |      244292     12.41%     63.17% |      241753     12.28%     75.45% |      243022     12.35%     87.80% |      240065     12.20%    100.00% (Unspecified)
system.caches.L1Cache_Controller.Data_all_Acks::total      1968019                       (Unspecified)
system.caches.L1Cache_Controller.Ack     |        1778     16.74%     16.74% |        1461     13.76%     30.50% |        1438     13.54%     44.04% |        1201     11.31%     55.34% |        1264     11.90%     67.24% |        1315     12.38%     79.63% |         848      7.98%     87.61% |        1316     12.39%    100.00% (Unspecified)
system.caches.L1Cache_Controller.Ack::total        10621                       (Unspecified)
system.caches.L1Cache_Controller.Ack_all |        1267     13.33%     13.33% |        1422     14.96%     28.29% |        1142     12.01%     40.31% |        1150     12.10%     52.40% |        1188     12.50%     64.90% |        1253     13.18%     78.09% |         802      8.44%     86.52% |        1281     13.48%    100.00% (Unspecified)
system.caches.L1Cache_Controller.Ack_all::total         9505                       (Unspecified)
system.caches.L1Cache_Controller.WB_Ack  |      419169     12.46%     12.46% |      414933     12.33%     24.79% |      442060     13.14%     37.93% |      417613     12.41%     50.34% |      415459     12.35%     62.69% |      425241     12.64%     75.33% |      416413     12.38%     87.71% |      413537     12.29%    100.00% (Unspecified)
system.caches.L1Cache_Controller.WB_Ack::total      3364425                       (Unspecified)
system.caches.L1Cache_Controller.NP.Load |      593382     12.45%     12.45% |      593045     12.44%     24.90% |      599121     12.57%     37.47% |      594921     12.48%     49.95% |      594341     12.47%     62.43% |      602562     12.64%     75.07% |      595215     12.49%     87.56% |      592758     12.44%    100.00% (Unspecified)
system.caches.L1Cache_Controller.NP.Load::total      4765345                       (Unspecified)
system.caches.L1Cache_Controller.NP.Ifetch |        3033     11.81%     11.81% |        1872      7.29%     19.11% |        8241     32.10%     51.21% |        1942      7.56%     58.77% |        4244     16.53%     75.30% |        2145      8.36%     83.66% |        2230      8.69%     92.34% |        1966      7.66%    100.00% (Unspecified)
system.caches.L1Cache_Controller.NP.Ifetch::total        25673                       (Unspecified)
system.caches.L1Cache_Controller.NP.Store |       35821     11.54%     11.54% |       35420     11.41%     22.95% |       60862     19.61%     42.56% |       35434     11.42%     53.97% |       35488     11.43%     65.41% |       36541     11.77%     77.18% |       35453     11.42%     88.60% |       35381     11.40%    100.00% (Unspecified)
system.caches.L1Cache_Controller.NP.Store::total       310400                       (Unspecified)
system.caches.L1Cache_Controller.NP.Inv  |        8751     13.02%     13.02% |        7970     11.86%     24.89% |       10608     15.79%     40.68% |        7214     10.74%     51.41% |        8098     12.05%     63.47% |        8593     12.79%     76.25% |        8530     12.70%     88.95% |        7424     11.05%    100.00% (Unspecified)
system.caches.L1Cache_Controller.NP.Inv::total        67188                       (Unspecified)
system.caches.L1Cache_Controller.I.Load  |        2722     12.81%     12.81% |        2799     13.17%     25.98% |        2638     12.42%     38.40% |        2558     12.04%     50.44% |        2552     12.01%     62.45% |        2641     12.43%     74.88% |        2646     12.45%     87.33% |        2692     12.67%    100.00% (Unspecified)
system.caches.L1Cache_Controller.I.Load::total        21248                       (Unspecified)
system.caches.L1Cache_Controller.I.Ifetch |        3540     14.07%     14.07% |        3032     12.05%     26.13% |        3053     12.14%     38.27% |        3052     12.13%     50.40% |        3201     12.73%     63.13% |        3122     12.41%     75.54% |        3129     12.44%     87.98% |        3023     12.02%    100.00% (Unspecified)
system.caches.L1Cache_Controller.I.Ifetch::total        25152                       (Unspecified)
system.caches.L1Cache_Controller.I.Store |         758     12.62%     12.62% |         738     12.29%     24.91% |         800     13.32%     38.23% |         732     12.19%     50.42% |         766     12.75%     63.17% |         735     12.24%     75.41% |         734     12.22%     87.63% |         743     12.37%    100.00% (Unspecified)
system.caches.L1Cache_Controller.I.Store::total         6006                       (Unspecified)
system.caches.L1Cache_Controller.I.L1_Replacement |        9764     10.58%     10.58% |       10362     11.22%     21.80% |       13568     14.70%     36.50% |       10729     11.62%     48.12% |       11246     12.18%     60.30% |       12121     13.13%     73.43% |       10473     11.34%     84.78% |       14054     15.22%    100.00% (Unspecified)
system.caches.L1Cache_Controller.I.L1_Replacement::total        92317                       (Unspecified)
system.caches.L1Cache_Controller.S.Load  |     7576165     12.98%     12.98% |     7764084     13.30%     26.28% |     6727416     11.53%     37.81% |     7277824     12.47%     50.27% |     6707343     11.49%     61.76% |     7226344     12.38%     74.14% |     7504523     12.86%     87.00% |     7587954     13.00%    100.00% (Unspecified)
system.caches.L1Cache_Controller.S.Load::total     58371653                       (Unspecified)
system.caches.L1Cache_Controller.S.Ifetch |     7876004     12.47%     12.47% |     7849753     12.43%     24.90% |     7905405     12.52%     37.41% |     7869175     12.46%     49.87% |     7971885     12.62%     62.49% |     7934538     12.56%     75.05% |     7871003     12.46%     87.51% |     7886218     12.49%    100.00% (Unspecified)
system.caches.L1Cache_Controller.S.Ifetch::total     63163981                       (Unspecified)
system.caches.L1Cache_Controller.S.Store |        1216     12.91%     12.91% |        1422     15.10%     28.01% |        1117     11.86%     39.87% |        1149     12.20%     52.06% |        1188     12.61%     64.68% |        1243     13.20%     77.87% |         802      8.51%     86.39% |        1282     13.61%    100.00% (Unspecified)
system.caches.L1Cache_Controller.S.Store::total         9419                       (Unspecified)
system.caches.L1Cache_Controller.S.Inv   |        7876     12.59%     12.59% |        7427     11.88%     24.47% |       10351     16.55%     41.02% |        7312     11.69%     52.71% |        7448     11.91%     64.62% |        7411     11.85%     76.47% |        7402     11.84%     88.30% |        7315     11.70%    100.00% (Unspecified)
system.caches.L1Cache_Controller.S.Inv::total        62542                       (Unspecified)
system.caches.L1Cache_Controller.S.L1_Replacement |      202913     12.47%     12.47% |      202060     12.42%     24.89% |      208751     12.83%     37.72% |      202262     12.43%     50.16% |      204690     12.58%     62.74% |      201774     12.40%     75.14% |      204130     12.55%     87.69% |      200326     12.31%    100.00% (Unspecified)
system.caches.L1Cache_Controller.S.L1_Replacement::total      1626906                       (Unspecified)
system.caches.L1Cache_Controller.E.Load  |     3710958     12.39%     12.39% |     3385073     11.31%     23.70% |     3919499     13.09%     36.79% |     3717347     12.42%     49.21% |     3729563     12.46%     61.66% |     3738518     12.49%     74.15% |     4014384     13.41%     87.56% |     3725981     12.44%    100.00% (Unspecified)
system.caches.L1Cache_Controller.E.Load::total     29941323                       (Unspecified)
system.caches.L1Cache_Controller.E.Store |       30575     12.09%     12.09% |       30056     11.88%     23.97% |       33308     13.17%     37.14% |       30075     11.89%     49.03% |       30159     11.92%     60.95% |       38335     15.16%     76.11% |       30467     12.04%     88.15% |       29972     11.85%    100.00% (Unspecified)
system.caches.L1Cache_Controller.E.Store::total       252947                       (Unspecified)
system.caches.L1Cache_Controller.E.Inv   |        6676      9.60%      9.60% |        8212     11.81%     21.40% |        8233     11.84%     33.24% |        8366     12.03%     45.27% |        9018     12.96%     58.23% |        9595     13.79%     72.02% |        8297     11.93%     83.95% |       11164     16.05%    100.00% (Unspecified)
system.caches.L1Cache_Controller.E.Inv::total        69561                       (Unspecified)
system.caches.L1Cache_Controller.E.L1_Replacement |      348439     12.40%     12.40% |      350844     12.48%     24.88% |      352356     12.53%     37.41% |      353296     12.57%     49.98% |      351174     12.49%     62.47% |      352563     12.54%     75.01% |      352205     12.53%     87.54% |      350153     12.46%    100.00% (Unspecified)
system.caches.L1Cache_Controller.E.L1_Replacement::total      2811030                       (Unspecified)
system.caches.L1Cache_Controller.E.Fwd_GETX |          10     11.63%     11.63% |          15     17.44%     29.07% |           6      6.98%     36.05% |          11     12.79%     48.84% |           8      9.30%     58.14% |          10     11.63%     69.77% |          16     18.60%     88.37% |          10     11.63%    100.00% (Unspecified)
system.caches.L1Cache_Controller.E.Fwd_GETX::total           86                       (Unspecified)
system.caches.L1Cache_Controller.E.Fwd_GETS |        3450     13.54%     13.54% |        3463     13.59%     27.13% |        3221     12.64%     39.77% |        3095     12.15%     51.92% |        3107     12.19%     64.11% |        3085     12.11%     76.21% |        3036     11.91%     88.13% |        3025     11.87%    100.00% (Unspecified)
system.caches.L1Cache_Controller.E.Fwd_GETS::total        25482                       (Unspecified)
system.caches.L1Cache_Controller.M.Load  |      668414     12.17%     12.17% |      699057     12.73%     24.91% |      690952     12.58%     37.49% |      665621     12.12%     49.61% |      743872     13.55%     63.16% |      694131     12.64%     75.81% |      665476     12.12%     87.93% |      662881     12.07%    100.00% (Unspecified)
system.caches.L1Cache_Controller.M.Load::total      5490404                       (Unspecified)
system.caches.L1Cache_Controller.M.Store |     1602019     12.21%     12.21% |     1595039     12.16%     24.36% |     1797899     13.70%     38.07% |     1598872     12.18%     50.25% |     1705421     13.00%     63.25% |     1619933     12.35%     75.59% |     1602043     12.21%     87.80% |     1600849     12.20%    100.00% (Unspecified)
system.caches.L1Cache_Controller.M.Store::total     13122075                       (Unspecified)
system.caches.L1Cache_Controller.M.Inv   |        1729     19.96%     19.96% |         793      9.15%     29.11% |         980     11.31%     40.42% |         899     10.38%     50.80% |         799      9.22%     60.03% |        1122     12.95%     72.98% |         799      9.22%     82.20% |        1542     17.80%    100.00% (Unspecified)
system.caches.L1Cache_Controller.M.Inv::total         8663                       (Unspecified)
system.caches.L1Cache_Controller.M.L1_Replacement |       70730     12.78%     12.78% |       64089     11.58%     24.36% |       89704     16.21%     40.57% |       64317     11.62%     52.19% |       64285     11.62%     63.81% |       72679     13.13%     76.94% |       64208     11.60%     88.55% |       63384     11.45%    100.00% (Unspecified)
system.caches.L1Cache_Controller.M.L1_Replacement::total       553396                       (Unspecified)
system.caches.L1Cache_Controller.M.Fwd_GETX |         848     12.39%     12.39% |         840     12.27%     24.66% |         897     13.10%     37.76% |         847     12.37%     50.14% |         881     12.87%     63.01% |         849     12.40%     75.41% |         840     12.27%     87.68% |         843     12.32%    100.00% (Unspecified)
system.caches.L1Cache_Controller.M.Fwd_GETX::total         6845                       (Unspecified)
system.caches.L1Cache_Controller.M.Fwd_GETS |        2255     13.27%     13.27% |        1877     11.05%     24.31% |        4411     25.96%     50.27% |        1423      8.37%     58.64% |        1735     10.21%     68.85% |        2066     12.16%     81.01% |        1627      9.57%     90.58% |        1600      9.42%    100.00% (Unspecified)
system.caches.L1Cache_Controller.M.Fwd_GETS::total        16994                       (Unspecified)
system.caches.L1Cache_Controller.IS.Inv  |           0      0.00%      0.00% |           1      2.78%      2.78% |          19     52.78%     55.56% |           6     16.67%     72.22% |           2      5.56%     77.78% |           2      5.56%     83.33% |           4     11.11%     94.44% |           2      5.56%    100.00% (Unspecified)
system.caches.L1Cache_Controller.IS.Inv::total           36                       (Unspecified)
system.caches.L1Cache_Controller.IS.L1_Replacement |           0      0.00%      0.00% |           0      0.00%      0.00% |           0      0.00%      0.00% |           1    100.00%    100.00% |           0      0.00%    100.00% |           0      0.00%    100.00% |           0      0.00%    100.00% |           0      0.00%    100.00% (Unspecified)
system.caches.L1Cache_Controller.IS.L1_Replacement::total            1                       (Unspecified)
system.caches.L1Cache_Controller.IS.Data_Exclusive |      391320     12.45%     12.45% |      390638     12.43%     24.88% |      395783     12.59%     37.47% |      391466     12.45%     49.92% |      391100     12.44%     62.37% |      400507     12.74%     75.11% |      390979     12.44%     87.55% |      391442     12.45%    100.00% (Unspecified)
system.caches.L1Cache_Controller.IS.Data_Exclusive::total      3143235                       (Unspecified)
system.caches.L1Cache_Controller.IS.DataS_fromL1 |        5009     11.79%     11.79% |        6204     14.61%     26.40% |        5415     12.75%     39.15% |        4712     11.09%     50.24% |        5199     12.24%     62.48% |        5475     12.89%     75.37% |        5405     12.72%     88.09% |        5057     11.91%    100.00% (Unspecified)
system.caches.L1Cache_Controller.IS.DataS_fromL1::total        42476                       (Unspecified)
system.caches.L1Cache_Controller.IS.Data_all_Acks |      206346     12.49%     12.49% |      203904     12.35%     24.84% |      211834     12.83%     37.66% |      206289     12.49%     50.15% |      208036     12.60%     62.75% |      204485     12.38%     75.13% |      206831     12.52%     87.65% |      203938     12.35%    100.00% (Unspecified)
system.caches.L1Cache_Controller.IS.Data_all_Acks::total      1651663                       (Unspecified)
system.caches.L1Cache_Controller.IM.Data |          52     57.14%     57.14% |           0      0.00%     57.14% |          26     28.57%     85.71% |           2      2.20%     87.91% |           0      0.00%     87.91% |          10     10.99%     98.90% |           1      1.10%    100.00% |           0      0.00%    100.00% (Unspecified)
system.caches.L1Cache_Controller.IM.Data::total           91                       (Unspecified)
system.caches.L1Cache_Controller.IM.Data_all_Acks |       36528     11.55%     11.55% |       36158     11.43%     22.98% |       61637     19.49%     42.46% |       36165     11.43%     53.90% |       36254     11.46%     65.36% |       37266     11.78%     77.14% |       36187     11.44%     88.58% |       36125     11.42%    100.00% (Unspecified)
system.caches.L1Cache_Controller.IM.Data_all_Acks::total       316320                       (Unspecified)
system.caches.L1Cache_Controller.SM.Inv  |           1     20.00%     20.00% |           0      0.00%     20.00% |           1     20.00%     40.00% |           1     20.00%     60.00% |           0      0.00%     60.00% |           0      0.00%     60.00% |           1     20.00%     80.00% |           1     20.00%    100.00% (Unspecified)
system.caches.L1Cache_Controller.SM.Inv::total            5                       (Unspecified)
system.caches.L1Cache_Controller.SM.Ack  |        1778     16.74%     16.74% |        1461     13.76%     30.50% |        1438     13.54%     44.04% |        1201     11.31%     55.34% |        1264     11.90%     67.24% |        1315     12.38%     79.63% |         848      7.98%     87.61% |        1316     12.39%    100.00% (Unspecified)
system.caches.L1Cache_Controller.SM.Ack::total        10621                       (Unspecified)
system.caches.L1Cache_Controller.SM.Ack_all |        1267     13.33%     13.33% |        1422     14.96%     28.29% |        1142     12.01%     40.31% |        1150     12.10%     52.40% |        1188     12.50%     64.90% |        1253     13.18%     78.09% |         802      8.44%     86.52% |        1281     13.48%    100.00% (Unspecified)
system.caches.L1Cache_Controller.SM.Ack_all::total         9505                       (Unspecified)
system.caches.L1Cache_Controller.IS_I.Data_all_Acks |           0      0.00%      0.00% |           1      2.78%      2.78% |          19     52.78%     55.56% |           6     16.67%     72.22% |           2      5.56%     77.78% |           2      5.56%     83.33% |           4     11.11%     94.44% |           2      5.56%    100.00% (Unspecified)
system.caches.L1Cache_Controller.IS_I.Data_all_Acks::total           36                       (Unspecified)
system.caches.L1Cache_Controller.M_I.Inv |           0      0.00%      0.00% |           0      0.00%      0.00% |           0      0.00%      0.00% |           1     20.00%     20.00% |           0      0.00%     20.00% |           1     20.00%     40.00% |           3     60.00%    100.00% |           0      0.00%    100.00% (Unspecified)
system.caches.L1Cache_Controller.M_I.Inv::total            5                       (Unspecified)
system.caches.L1Cache_Controller.M_I.WB_Ack |      419169     12.46%     12.46% |      414933     12.33%     24.79% |      442060     13.14%     37.93% |      417612     12.41%     50.34% |      415459     12.35%     62.69% |      425240     12.64%     75.33% |      416410     12.38%     87.71% |      413537     12.29%    100.00% (Unspecified)
system.caches.L1Cache_Controller.M_I.WB_Ack::total      3364420                       (Unspecified)
system.caches.L1Cache_Controller.SINK_WB_ACK.WB_Ack |           0      0.00%      0.00% |           0      0.00%      0.00% |           0      0.00%      0.00% |           1     20.00%     20.00% |           0      0.00%     20.00% |           1     20.00%     40.00% |           3     60.00%    100.00% |           0      0.00%    100.00% (Unspecified)
system.caches.L1Cache_Controller.SINK_WB_ACK.WB_Ack::total            5                       (Unspecified)
system.caches.Directory_Controller.Fetch |        8010      0.23%      0.23% |     3410602     99.77%    100.00% (Unspecified)
system.caches.Directory_Controller.Fetch::total      3418612                       (Unspecified)
system.caches.Directory_Controller.Data  |         326      0.05%      0.05% |      608194     99.95%    100.00% (Unspecified)
system.caches.Directory_Controller.Data::total       608520                       (Unspecified)
system.caches.Directory_Controller.Memory_Data |        8010      0.23%      0.23% |     3410595     99.77%    100.00% (Unspecified)
system.caches.Directory_Controller.Memory_Data::total      3418605                       (Unspecified)
system.caches.Directory_Controller.Memory_Ack |         326      0.05%      0.05% |      608194     99.95%    100.00% (Unspecified)
system.caches.Directory_Controller.Memory_Ack::total       608520                       (Unspecified)
system.caches.Directory_Controller.CleanReplacement |        7681      0.27%      0.27% |     2802411     99.73%    100.00% (Unspecified)
system.caches.Directory_Controller.CleanReplacement::total      2810092                       (Unspecified)
system.caches.Directory_Controller.I.Fetch |        8010      0.23%      0.23% |     3410602     99.77%    100.00% (Unspecified)
system.caches.Directory_Controller.I.Fetch::total      3418612                       (Unspecified)
system.caches.Directory_Controller.M.Data |         326      0.05%      0.05% |      608194     99.95%    100.00% (Unspecified)
system.caches.Directory_Controller.M.Data::total       608520                       (Unspecified)
system.caches.Directory_Controller.M.CleanReplacement |        7681      0.27%      0.27% |     2802411     99.73%    100.00% (Unspecified)
system.caches.Directory_Controller.M.CleanReplacement::total      2810092                       (Unspecified)
system.caches.Directory_Controller.IM.Memory_Data |        8010      0.23%      0.23% |     3410595     99.77%    100.00% (Unspecified)
system.caches.Directory_Controller.IM.Memory_Data::total      3418605                       (Unspecified)
system.caches.Directory_Controller.MI.Memory_Ack |         326      0.05%      0.05% |      608194     99.95%    100.00% (Unspecified)
system.caches.Directory_Controller.MI.Memory_Ack::total       608520                       (Unspecified)
system.caches.L2Cache_Controller.L1_GET_INSTR |        7455     14.63%     14.63% |        7192     14.12%     28.75% |        5635     11.06%     39.81% |        4846      9.51%     49.33% |        6445     12.65%     61.98% |        6362     12.49%     74.47% |        6320     12.41%     86.87% |        6688     13.13%    100.00% (Unspecified)
system.caches.L2Cache_Controller.L1_GET_INSTR::total        50943                       (Unspecified)
system.caches.L2Cache_Controller.L1_GETS |      607892     12.70%     12.70% |      595717     12.44%     25.14% |      597279     12.48%     37.62% |      592417     12.37%     49.99% |      595568     12.44%     62.43% |      600294     12.54%     74.97% |      596235     12.45%     87.42% |      602128     12.58%    100.00% (Unspecified)
system.caches.L2Cache_Controller.L1_GETS::total      4787530                       (Unspecified)
system.caches.L2Cache_Controller.L1_GETX |       39116     12.35%     12.35% |       44341     14.00%     26.35% |       38037     12.01%     38.36% |       38752     12.23%     50.59% |       38635     12.20%     62.79% |       39643     12.52%     75.30% |       38812     12.25%     87.56% |       39411     12.44%    100.00% (Unspecified)
system.caches.L2Cache_Controller.L1_GETX::total       316747                       (Unspecified)
system.caches.L2Cache_Controller.L1_UPGRADE |         673      7.12%      7.12% |         642      6.79%     13.91% |         678      7.17%     21.09% |         696      7.36%     28.45% |         757      8.01%     36.46% |         743      7.86%     44.32% |         915      9.68%     54.00% |        4347     46.00%    100.00% (Unspecified)
system.caches.L2Cache_Controller.L1_UPGRADE::total         9451                       (Unspecified)
system.caches.L2Cache_Controller.L1_PUTX |      416931     12.39%     12.39% |      421512     12.53%     24.92% |      420529     12.50%     37.42% |      421322     12.52%     49.94% |      421306     12.52%     62.47% |      422020     12.54%     75.01% |      420752     12.51%     87.51% |      420049     12.49%    100.00% (Unspecified)
system.caches.L2Cache_Controller.L1_PUTX::total      3364421                       (Unspecified)
system.caches.L2Cache_Controller.L1_PUTX_old |           4     40.00%     40.00% |           2     20.00%     60.00% |           0      0.00%     60.00% |           4     40.00%    100.00% |           0      0.00%    100.00% |           0      0.00%    100.00% |           0      0.00%    100.00% |           0      0.00%    100.00% (Unspecified)
system.caches.L2Cache_Controller.L1_PUTX_old::total           10                       (Unspecified)
system.caches.L2Cache_Controller.L2_Replacement |       75028     12.50%     12.50% |       74964     12.49%     24.99% |       74704     12.45%     37.44% |       75003     12.50%     49.93% |       74790     12.46%     62.39% |       75617     12.60%     74.99% |       75004     12.50%     87.49% |       75082     12.51%    100.00% (Unspecified)
system.caches.L2Cache_Controller.L2_Replacement::total       600192                       (Unspecified)
system.caches.L2Cache_Controller.L2_Replacement_clean |      352865     12.52%     12.52% |      352600     12.51%     25.03% |      352040     12.49%     37.52% |      352276     12.50%     50.02% |      352386     12.50%     62.52% |      352206     12.50%     75.02% |      351903     12.49%     87.51% |      352145     12.49%    100.00% (Unspecified)
system.caches.L2Cache_Controller.L2_Replacement_clean::total      2818421                       (Unspecified)
system.caches.L2Cache_Controller.Mem_Data |      427891     12.52%     12.52% |      427561     12.51%     25.02% |      426743     12.48%     37.51% |      427278     12.50%     50.00% |      427176     12.50%     62.50% |      427822     12.51%     75.02% |      426907     12.49%     87.50% |      427227     12.50%    100.00% (Unspecified)
system.caches.L2Cache_Controller.Mem_Data::total      3418605                       (Unspecified)
system.caches.L2Cache_Controller.Mem_Ack |      427893     12.52%     12.52% |      427563     12.51%     25.02% |      426744     12.48%     37.51% |      427279     12.50%     50.01% |      427176     12.50%     62.50% |      427823     12.51%     75.02% |      426907     12.49%     87.50% |      427227     12.50%    100.00% (Unspecified)
system.caches.L2Cache_Controller.Mem_Ack::total      3418612                       (Unspecified)
system.caches.L2Cache_Controller.WB_Data |        2941     11.46%     11.46% |        2723     10.61%     22.07% |        2669     10.40%     32.48% |        2718     10.59%     43.07% |        2845     11.09%     54.16% |        2894     11.28%     65.44% |        2937     11.45%     76.88% |        5931     23.12%    100.00% (Unspecified)
system.caches.L2Cache_Controller.WB_Data::total        25658                       (Unspecified)
system.caches.L2Cache_Controller.WB_Data_clean |        7488     29.38%     29.38% |        2288      8.98%     38.36% |        2353      9.23%     47.59% |        2232      8.76%     56.35% |        2257      8.86%     65.20% |        2247      8.82%     74.02% |        2304      9.04%     83.06% |        4317     16.94%    100.00% (Unspecified)
system.caches.L2Cache_Controller.WB_Data_clean::total        25486                       (Unspecified)
system.caches.L2Cache_Controller.Ack     |       16030     19.01%     19.01% |       10055     11.92%     30.93% |        9713     11.52%     42.45% |        8236      9.77%     52.21% |        9232     10.95%     63.16% |        9701     11.50%     74.66% |        9610     11.39%     86.05% |       11762     13.95%    100.00% (Unspecified)
system.caches.L2Cache_Controller.Ack::total        84339                       (Unspecified)
system.caches.L2Cache_Controller.Ack_all |       17078     16.38%     16.38% |       12506     11.99%     28.37% |       12253     11.75%     40.12% |       12102     11.61%     51.72% |       12255     11.75%     63.48% |       12209     11.71%     75.18% |       12355     11.85%     87.03% |       13523     12.97%    100.00% (Unspecified)
system.caches.L2Cache_Controller.Ack_all::total       104281                       (Unspecified)
system.caches.L2Cache_Controller.Unblock |        9183     21.62%     21.62% |        3920      9.23%     30.85% |        4028      9.48%     40.33% |        3940      9.28%     49.61% |        4036      9.50%     59.11% |        4032      9.49%     68.60% |        4239      9.98%     78.58% |        9098     21.42%    100.00% (Unspecified)
system.caches.L2Cache_Controller.Unblock::total        42476                       (Unspecified)
system.caches.L2Cache_Controller.Exclusive_Unblock |      433003     12.48%     12.48% |      438075     12.63%     25.11% |      431377     12.43%     37.54% |      432499     12.47%     50.01% |      432247     12.46%     62.47% |      433419     12.49%     74.97% |      432089     12.46%     87.42% |      436351     12.58%    100.00% (Unspecified)
system.caches.L2Cache_Controller.Exclusive_Unblock::total      3469060                       (Unspecified)
system.caches.L2Cache_Controller.NP.L1_GET_INSTR |        1114     13.02%     13.02% |        1179     13.78%     26.81% |        1033     12.08%     38.89% |         948     11.08%     49.97% |        1081     12.64%     62.61% |        1064     12.44%     75.05% |        1005     11.75%     86.80% |        1129     13.20%    100.00% (Unspecified)
system.caches.L2Cache_Controller.NP.L1_GET_INSTR::total         8553                       (Unspecified)
system.caches.L2Cache_Controller.NP.L1_GETS |      389183     12.51%     12.51% |      389066     12.50%     25.01% |      388828     12.50%     37.51% |      389180     12.51%     50.02% |      388817     12.50%     62.52% |      389107     12.51%     75.02% |      388600     12.49%     87.51% |      388579     12.49%    100.00% (Unspecified)
system.caches.L2Cache_Controller.NP.L1_GETS::total      3111360                       (Unspecified)
system.caches.L2Cache_Controller.NP.L1_GETX |       37596     12.59%     12.59% |       37319     12.49%     25.08% |       36883     12.35%     37.43% |       37151     12.44%     49.87% |       37278     12.48%     62.35% |       37652     12.61%     74.95% |       37302     12.49%     87.44% |       37519     12.56%    100.00% (Unspecified)
system.caches.L2Cache_Controller.NP.L1_GETX::total       298700                       (Unspecified)
system.caches.L2Cache_Controller.NP.L1_PUTX_old |           2     40.00%     40.00% |           1     20.00%     60.00% |           0      0.00%     60.00% |           2     40.00%    100.00% |           0      0.00%    100.00% |           0      0.00%    100.00% |           0      0.00%    100.00% |           0      0.00%    100.00% (Unspecified)
system.caches.L2Cache_Controller.NP.L1_PUTX_old::total            5                       (Unspecified)
system.caches.L2Cache_Controller.SS.L1_GET_INSTR |        5403     15.46%     15.46% |        4975     14.24%     29.70% |        3793     10.86%     40.56% |        3137      8.98%     49.54% |        4332     12.40%     61.94% |        4335     12.41%     74.35% |        4310     12.34%     86.68% |        4652     13.32%    100.00% (Unspecified)
system.caches.L2Cache_Controller.SS.L1_GET_INSTR::total        34937                       (Unspecified)
system.caches.L2Cache_Controller.SS.L1_GETS |      204636     12.81%     12.81% |      198225     12.41%     25.21% |      199959     12.51%     37.73% |      195025     12.21%     49.93% |      198351     12.41%     62.35% |      202586     12.68%     75.02% |      199033     12.46%     87.48% |      200054     12.52%    100.00% (Unspecified)
system.caches.L2Cache_Controller.SS.L1_GETS::total      1597869                       (Unspecified)
system.caches.L2Cache_Controller.SS.L1_GETX |          28     30.43%     30.43% |           1      1.09%     31.52% |           3      3.26%     34.78% |           2      2.17%     36.96% |          13     14.13%     51.09% |           6      6.52%     57.61% |          27     29.35%     86.96% |          12     13.04%    100.00% (Unspecified)
system.caches.L2Cache_Controller.SS.L1_GETX::total           92                       (Unspecified)
system.caches.L2Cache_Controller.SS.L1_UPGRADE |         673      7.15%      7.15% |         642      6.82%     13.97% |         678      7.20%     21.17% |         696      7.39%     28.56% |         757      8.04%     36.61% |         739      7.85%     44.46% |         885      9.40%     53.86% |        4344     46.14%    100.00% (Unspecified)
system.caches.L2Cache_Controller.SS.L1_UPGRADE::total         9414                       (Unspecified)
system.caches.L2Cache_Controller.SS.L2_Replacement |         445     12.29%     12.29% |         438     12.10%     24.39% |         446     12.32%     36.71% |         451     12.46%     49.17% |         438     12.10%     61.27% |         444     12.27%     73.54% |         479     13.23%     86.77% |         479     13.23%    100.00% (Unspecified)
system.caches.L2Cache_Controller.SS.L2_Replacement::total         3620                       (Unspecified)
system.caches.L2Cache_Controller.SS.L2_Replacement_clean |        8245     26.51%     26.51% |        3168     10.19%     36.70% |        3105      9.98%     46.68% |        2846      9.15%     55.83% |        3007      9.67%     65.50% |        3052      9.81%     75.32% |        2925      9.41%     84.72% |        4752     15.28%    100.00% (Unspecified)
system.caches.L2Cache_Controller.SS.L2_Replacement_clean::total        31100                       (Unspecified)
system.caches.L2Cache_Controller.M.L1_GET_INSTR |           0      0.00%      0.00% |           2     25.00%     25.00% |           1     12.50%     37.50% |           0      0.00%     37.50% |           0      0.00%     37.50% |           1     12.50%     50.00% |           2     25.00%     75.00% |           2     25.00%    100.00% (Unspecified)
system.caches.L2Cache_Controller.M.L1_GET_INSTR::total            8                       (Unspecified)
system.caches.L2Cache_Controller.M.L1_GETS |        4220     12.91%     12.91% |        4255     13.02%     25.94% |        3977     12.17%     38.11% |        3963     12.13%     50.23% |        4092     12.52%     62.76% |        4086     12.50%     75.26% |        3936     12.05%     87.31% |        4148     12.69%    100.00% (Unspecified)
system.caches.L2Cache_Controller.M.L1_GETS::total        32677                       (Unspecified)
system.caches.L2Cache_Controller.M.L1_GETX |        1401     13.11%     13.11% |        1297     12.14%     25.24% |        1143     10.69%     35.94% |        1250     11.70%     47.63% |        1319     12.34%     59.97% |        1459     13.65%     73.62% |        1337     12.51%     86.13% |        1482     13.87%    100.00% (Unspecified)
system.caches.L2Cache_Controller.M.L1_GETX::total        10688                       (Unspecified)
system.caches.L2Cache_Controller.M.L2_Replacement |       74527     12.50%     12.50% |       74477     12.49%     24.99% |       74223     12.45%     37.44% |       74506     12.50%     49.94% |       74313     12.46%     62.41% |       75111     12.60%     75.00% |       74489     12.49%     87.50% |       74529     12.50%    100.00% (Unspecified)
system.caches.L2Cache_Controller.M.L2_Replacement::total       596175                       (Unspecified)
system.caches.L2Cache_Controller.M.L2_Replacement_clean |      335042     12.37%     12.37% |      339490     12.53%     24.90% |      339274     12.52%     37.42% |      339661     12.54%     49.95% |      339542     12.53%     62.48% |      339394     12.53%     75.01% |      339061     12.51%     87.52% |      338025     12.48%    100.00% (Unspecified)
system.caches.L2Cache_Controller.M.L2_Replacement_clean::total      2709489                       (Unspecified)
system.caches.L2Cache_Controller.MT.L1_GETS |        9183     21.62%     21.62% |        3920      9.23%     30.85% |        4028      9.48%     40.33% |        3940      9.28%     49.61% |        4036      9.50%     59.11% |        4032      9.49%     68.60% |        4239      9.98%     78.58% |        9098     21.42%    100.00% (Unspecified)
system.caches.L2Cache_Controller.MT.L1_GETS::total        42476                       (Unspecified)
system.caches.L2Cache_Controller.MT.L1_GETX |          57      0.82%      0.82% |        5599     80.78%     81.60% |           8      0.12%     81.72% |         349      5.04%     86.76% |          24      0.35%     87.10% |         477      6.88%     93.98% |          58      0.84%     94.82% |         359      5.18%    100.00% (Unspecified)
system.caches.L2Cache_Controller.MT.L1_GETX::total         6931                       (Unspecified)
system.caches.L2Cache_Controller.MT.L1_PUTX |      416931     12.39%     12.39% |      421512     12.53%     24.92% |      420529     12.50%     37.42% |      421322     12.52%     49.94% |      421306     12.52%     62.47% |      422020     12.54%     75.01% |      420752     12.51%     87.51% |      420049     12.49%    100.00% (Unspecified)
system.caches.L2Cache_Controller.MT.L1_PUTX::total      3364421                       (Unspecified)
system.caches.L2Cache_Controller.MT.L2_Replacement |          56     14.11%     14.11% |          49     12.34%     26.45% |          35      8.82%     35.26% |          46     11.59%     46.85% |          39      9.82%     56.68% |          62     15.62%     72.29% |          36      9.07%     81.36% |          74     18.64%    100.00% (Unspecified)
system.caches.L2Cache_Controller.MT.L2_Replacement::total          397                       (Unspecified)
system.caches.L2Cache_Controller.MT.L2_Replacement_clean |        9578     12.31%     12.31% |        9942     12.77%     25.08% |        9661     12.41%     37.49% |        9769     12.55%     50.04% |        9837     12.64%     62.68% |        9760     12.54%     75.22% |        9917     12.74%     87.96% |        9368     12.04%    100.00% (Unspecified)
system.caches.L2Cache_Controller.MT.L2_Replacement_clean::total        77832                       (Unspecified)
system.caches.L2Cache_Controller.M_I.L1_GET_INSTR |          15     12.71%     12.71% |           0      0.00%     12.71% |           0      0.00%     12.71% |          16     13.56%     26.27% |          18     15.25%     41.53% |           1      0.85%     42.37% |          32     27.12%     69.49% |          36     30.51%    100.00% (Unspecified)
system.caches.L2Cache_Controller.M_I.L1_GET_INSTR::total          118                       (Unspecified)
system.caches.L2Cache_Controller.M_I.L1_GETS |          21     18.92%     18.92% |           6      5.41%     24.32% |          18     16.22%     40.54% |          18     16.22%     56.76% |           3      2.70%     59.46% |          33     29.73%     89.19% |           9      8.11%     97.30% |           3      2.70%    100.00% (Unspecified)
system.caches.L2Cache_Controller.M_I.L1_GETS::total          111                       (Unspecified)
system.caches.L2Cache_Controller.M_I.L1_GETX |          34     72.34%     72.34% |           9     19.15%     91.49% |           0      0.00%     91.49% |           0      0.00%     91.49% |           1      2.13%     93.62% |           3      6.38%    100.00% |           0      0.00%    100.00% |           0      0.00%    100.00% (Unspecified)
system.caches.L2Cache_Controller.M_I.L1_GETX::total           47                       (Unspecified)
system.caches.L2Cache_Controller.M_I.Mem_Ack |      427893     12.52%     12.52% |      427563     12.51%     25.02% |      426744     12.48%     37.51% |      427279     12.50%     50.01% |      427176     12.50%     62.50% |      427823     12.51%     75.02% |      426907     12.49%     87.50% |      427227     12.50%    100.00% (Unspecified)
system.caches.L2Cache_Controller.M_I.Mem_Ack::total      3418612                       (Unspecified)
system.caches.L2Cache_Controller.MT_I.WB_Data |          45     13.39%     13.39% |          40     11.90%     25.30% |          29      8.63%     33.93% |          40     11.90%     45.83% |          32      9.52%     55.36% |          50     14.88%     70.24% |          30      8.93%     79.17% |          70     20.83%    100.00% (Unspecified)
system.caches.L2Cache_Controller.MT_I.WB_Data::total          336                       (Unspecified)
system.caches.L2Cache_Controller.MT_I.Ack_all |          11     18.03%     18.03% |           9     14.75%     32.79% |           6      9.84%     42.62% |           6      9.84%     52.46% |           7     11.48%     63.93% |          12     19.67%     83.61% |           6      9.84%     93.44% |           4      6.56%    100.00% (Unspecified)
system.caches.L2Cache_Controller.MT_I.Ack_all::total           61                       (Unspecified)
system.caches.L2Cache_Controller.MCT_I.L1_PUTX_old |           2     40.00%     40.00% |           1     20.00%     60.00% |           0      0.00%     60.00% |           2     40.00%    100.00% |           0      0.00%    100.00% |           0      0.00%    100.00% |           0      0.00%    100.00% |           0      0.00%    100.00% (Unspecified)
system.caches.L2Cache_Controller.MCT_I.L1_PUTX_old::total            5                       (Unspecified)
system.caches.L2Cache_Controller.MCT_I.WB_Data |        1199     14.40%     14.40% |        1050     12.61%     27.01% |         965     11.59%     38.59% |         969     11.64%     50.23% |        1034     12.42%     62.64% |        1059     12.72%     75.36% |         972     11.67%     87.03% |        1080     12.97%    100.00% (Unspecified)
system.caches.L2Cache_Controller.MCT_I.WB_Data::total         8328                       (Unspecified)
system.caches.L2Cache_Controller.MCT_I.WB_Data_clean |           2     50.00%     50.00% |           1     25.00%     75.00% |           0      0.00%     75.00% |           1     25.00%    100.00% |           0      0.00%    100.00% |           0      0.00%    100.00% |           0      0.00%    100.00% |           0      0.00%    100.00% (Unspecified)
system.caches.L2Cache_Controller.MCT_I.WB_Data_clean::total            4                       (Unspecified)
system.caches.L2Cache_Controller.MCT_I.Ack_all |        8377     12.05%     12.05% |        8891     12.79%     24.85% |        8696     12.51%     37.36% |        8799     12.66%     50.02% |        8803     12.67%     62.68% |        8701     12.52%     75.20% |        8945     12.87%     88.07% |        8288     11.93%    100.00% (Unspecified)
system.caches.L2Cache_Controller.MCT_I.Ack_all::total        69500                       (Unspecified)
system.caches.L2Cache_Controller.I_I.Ack |       14916     19.44%     19.44% |        9075     11.83%     31.27% |        8792     11.46%     42.73% |        7320      9.54%     52.27% |        8422     10.98%     63.25% |        8825     11.50%     74.75% |        8579     11.18%     85.93% |       10795     14.07%    100.00% (Unspecified)
system.caches.L2Cache_Controller.I_I.Ack::total        76724                       (Unspecified)
system.caches.L2Cache_Controller.I_I.Ack_all |        8245     26.51%     26.51% |        3168     10.19%     36.70% |        3105      9.98%     46.68% |        2846      9.15%     55.83% |        3007      9.67%     65.50% |        3052      9.81%     75.32% |        2925      9.41%     84.72% |        4752     15.28%    100.00% (Unspecified)
system.caches.L2Cache_Controller.I_I.Ack_all::total        31100                       (Unspecified)
system.caches.L2Cache_Controller.S_I.Ack |        1114     14.63%     14.63% |         980     12.87%     27.50% |         921     12.09%     39.59% |         916     12.03%     51.62% |         810     10.64%     62.26% |         876     11.50%     73.76% |        1031     13.54%     87.30% |         967     12.70%    100.00% (Unspecified)
system.caches.L2Cache_Controller.S_I.Ack::total         7615                       (Unspecified)
system.caches.L2Cache_Controller.S_I.Ack_all |         445     12.29%     12.29% |         438     12.10%     24.39% |         446     12.32%     36.71% |         451     12.46%     49.17% |         438     12.10%     61.27% |         444     12.27%     73.54% |         479     13.23%     86.77% |         479     13.23%    100.00% (Unspecified)
system.caches.L2Cache_Controller.S_I.Ack_all::total         3620                       (Unspecified)
system.caches.L2Cache_Controller.ISS.L1_GETS |         153     19.27%     19.27% |         101     12.72%     31.99% |         142     17.88%     49.87% |          91     11.46%     61.34% |          53      6.68%     68.01% |         106     13.35%     81.36% |          56      7.05%     88.41% |          92     11.59%    100.00% (Unspecified)
system.caches.L2Cache_Controller.ISS.L1_GETS::total          794                       (Unspecified)
system.caches.L2Cache_Controller.ISS.Mem_Data |      389028     12.51%     12.51% |      388962     12.50%     25.01% |      388685     12.50%     37.51% |      389088     12.51%     50.02% |      388764     12.50%     62.51% |      389000     12.51%     75.02% |      388544     12.49%     87.51% |      388487     12.49%    100.00% (Unspecified)
system.caches.L2Cache_Controller.ISS.Mem_Data::total      3110558                       (Unspecified)
system.caches.L2Cache_Controller.IS.L1_GET_INSTR |         923     12.60%     12.60% |        1036     14.14%     26.74% |         808     11.03%     37.76% |         745     10.17%     47.93% |        1014     13.84%     61.77% |         961     13.12%     74.89% |         971     13.25%     88.14% |         869     11.86%    100.00% (Unspecified)
system.caches.L2Cache_Controller.IS.L1_GET_INSTR::total         7327                       (Unspecified)
system.caches.L2Cache_Controller.IS.L1_GETS |         364     25.69%     25.69% |         119      8.40%     34.09% |         275     19.41%     53.49% |         179     12.63%     66.13% |          48      3.39%     69.51% |         293     20.68%     90.19% |          41      2.89%     93.08% |          98      6.92%    100.00% (Unspecified)
system.caches.L2Cache_Controller.IS.L1_GETS::total         1417                       (Unspecified)
system.caches.L2Cache_Controller.IS.Mem_Data |        1267     13.56%     13.56% |        1280     13.69%     27.25% |        1175     12.57%     39.82% |        1039     11.12%     50.94% |        1134     12.13%     63.07% |        1170     12.52%     75.59% |        1061     11.35%     86.94% |        1221     13.06%    100.00% (Unspecified)
system.caches.L2Cache_Controller.IS.Mem_Data::total         9347                       (Unspecified)
system.caches.L2Cache_Controller.IM.L1_GETX |           0      0.00%      0.00% |           7     87.50%     87.50% |           0      0.00%     87.50% |           0      0.00%     87.50% |           0      0.00%     87.50% |           0      0.00%     87.50% |           0      0.00%     87.50% |           1     12.50%    100.00% (Unspecified)
system.caches.L2Cache_Controller.IM.L1_GETX::total            8                       (Unspecified)
system.caches.L2Cache_Controller.IM.Mem_Data |       37596     12.59%     12.59% |       37319     12.49%     25.08% |       36883     12.35%     37.43% |       37151     12.44%     49.87% |       37278     12.48%     62.35% |       37652     12.61%     74.95% |       37302     12.49%     87.44% |       37519     12.56%    100.00% (Unspecified)
system.caches.L2Cache_Controller.IM.Mem_Data::total       298700                       (Unspecified)
system.caches.L2Cache_Controller.SS_MB.L1_GETS |          50     14.25%     14.25% |           0      0.00%     14.25% |           1      0.28%     14.53% |           0      0.00%     14.53% |          89     25.36%     39.89% |          12      3.42%     43.30% |         181     51.57%     94.87% |          18      5.13%    100.00% (Unspecified)
system.caches.L2Cache_Controller.SS_MB.L1_GETS::total          351                       (Unspecified)
system.caches.L2Cache_Controller.SS_MB.L1_GETX |           0      0.00%      0.00% |           0      0.00%      0.00% |           0      0.00%      0.00% |           0      0.00%      0.00% |           0      0.00%      0.00% |           2      7.41%      7.41% |          25     92.59%    100.00% |           0      0.00%    100.00% (Unspecified)
system.caches.L2Cache_Controller.SS_MB.L1_GETX::total           27                       (Unspecified)
system.caches.L2Cache_Controller.SS_MB.L1_UPGRADE |           0      0.00%      0.00% |           0      0.00%      0.00% |           0      0.00%      0.00% |           0      0.00%      0.00% |           0      0.00%      0.00% |           3     60.00%     60.00% |           0      0.00%     60.00% |           2     40.00%    100.00% (Unspecified)
system.caches.L2Cache_Controller.SS_MB.L1_UPGRADE::total            5                       (Unspecified)
system.caches.L2Cache_Controller.SS_MB.Exclusive_Unblock |         701      7.37%      7.37% |         643      6.76%     14.14% |         681      7.16%     21.30% |         698      7.34%     28.65% |         770      8.10%     36.75% |         745      7.84%     44.58% |         912      9.59%     54.18% |        4356     45.82%    100.00% (Unspecified)
system.caches.L2Cache_Controller.SS_MB.Exclusive_Unblock::total         9506                       (Unspecified)
system.caches.L2Cache_Controller.MT_MB.L1_GETS |           0      0.00%      0.00% |           1      5.56%      5.56% |           2     11.11%     16.67% |           7     38.89%     55.56% |           0      0.00%     55.56% |           5     27.78%     83.33% |           0      0.00%     83.33% |           3     16.67%    100.00% (Unspecified)
system.caches.L2Cache_Controller.MT_MB.L1_GETS::total           18                       (Unspecified)
system.caches.L2Cache_Controller.MT_MB.L1_GETX |           0      0.00%      0.00% |         109     43.60%     43.60% |           0      0.00%     43.60% |           0      0.00%     43.60% |           0      0.00%     43.60% |          42     16.80%     60.40% |          61     24.40%     84.80% |          38     15.20%    100.00% (Unspecified)
system.caches.L2Cache_Controller.MT_MB.L1_GETX::total          250                       (Unspecified)
system.caches.L2Cache_Controller.MT_MB.Exclusive_Unblock |      432302     12.50%     12.50% |      437432     12.64%     25.14% |      430696     12.45%     37.59% |      431801     12.48%     50.07% |      431477     12.47%     62.54% |      432674     12.51%     75.05% |      431177     12.46%     87.51% |      431995     12.49%    100.00% (Unspecified)
system.caches.L2Cache_Controller.MT_MB.Exclusive_Unblock::total      3459554                       (Unspecified)
system.caches.L2Cache_Controller.MT_IIB.L1_GETS |          70     16.99%     16.99% |          20      4.85%     21.84% |          47     11.41%     33.25% |          11      2.67%     35.92% |          76     18.45%     54.37% |          26      6.31%     60.68% |         127     30.83%     91.50% |          35      8.50%    100.00% (Unspecified)
system.caches.L2Cache_Controller.MT_IIB.L1_GETS::total          412                       (Unspecified)
system.caches.L2Cache_Controller.MT_IIB.L1_GETX |           0      0.00%      0.00% |           0      0.00%      0.00% |           0      0.00%      0.00% |           0      0.00%      0.00% |           0      0.00%      0.00% |           2     66.67%     66.67% |           1     33.33%    100.00% |           0      0.00%    100.00% (Unspecified)
system.caches.L2Cache_Controller.MT_IIB.L1_GETX::total            3                       (Unspecified)
system.caches.L2Cache_Controller.MT_IIB.WB_Data |        1696     10.01%     10.01% |        1630      9.62%     19.63% |        1675      9.89%     29.52% |        1685      9.95%     39.47% |        1756     10.37%     49.83% |        1785     10.54%     60.37% |        1933     11.41%     71.78% |        4781     28.22%    100.00% (Unspecified)
system.caches.L2Cache_Controller.MT_IIB.WB_Data::total        16941                       (Unspecified)
system.caches.L2Cache_Controller.MT_IIB.WB_Data_clean |        7486     29.38%     29.38% |        2287      8.98%     38.35% |        2353      9.23%     47.59% |        2231      8.76%     56.34% |        2256      8.85%     65.20% |        2247      8.82%     74.02% |        2304      9.04%     83.06% |        4317     16.94%    100.00% (Unspecified)
system.caches.L2Cache_Controller.MT_IIB.WB_Data_clean::total        25481                       (Unspecified)
system.caches.L2Cache_Controller.MT_IIB.Unblock |           1      1.85%      1.85% |           3      5.56%      7.41% |           0      0.00%      7.41% |          24     44.44%     51.85% |          24     44.44%     96.30% |           0      0.00%     96.30% |           2      3.70%    100.00% |           0      0.00%    100.00% (Unspecified)
system.caches.L2Cache_Controller.MT_IIB.Unblock::total           54                       (Unspecified)
system.caches.L2Cache_Controller.MT_IB.L1_GETS |           1    100.00%    100.00% |           0      0.00%    100.00% |           0      0.00%    100.00% |           0      0.00%    100.00% |           0      0.00%    100.00% |           0      0.00%    100.00% |           0      0.00%    100.00% |           0      0.00%    100.00% (Unspecified)
system.caches.L2Cache_Controller.MT_IB.L1_GETS::total            1                       (Unspecified)
system.caches.L2Cache_Controller.MT_IB.WB_Data |           1      1.89%      1.89% |           3      5.66%      7.55% |           0      0.00%      7.55% |          24     45.28%     52.83% |          23     43.40%     96.23% |           0      0.00%     96.23% |           2      3.77%    100.00% |           0      0.00%    100.00% (Unspecified)
system.caches.L2Cache_Controller.MT_IB.WB_Data::total           53                       (Unspecified)
system.caches.L2Cache_Controller.MT_IB.WB_Data_clean |           0      0.00%      0.00% |           0      0.00%      0.00% |           0      0.00%      0.00% |           0      0.00%      0.00% |           1    100.00%    100.00% |           0      0.00%    100.00% |           0      0.00%    100.00% |           0      0.00%    100.00% (Unspecified)
system.caches.L2Cache_Controller.MT_IB.WB_Data_clean::total            1                       (Unspecified)
system.caches.L2Cache_Controller.MT_SB.L1_GETS |          11     25.00%     25.00% |           4      9.09%     34.09% |           2      4.55%     38.64% |           3      6.82%     45.45% |           3      6.82%     52.27% |           8     18.18%     70.45% |          13     29.55%    100.00% |           0      0.00%    100.00% (Unspecified)
system.caches.L2Cache_Controller.MT_SB.L1_GETS::total           44                       (Unspecified)
system.caches.L2Cache_Controller.MT_SB.L1_GETX |           0      0.00%      0.00% |           0      0.00%      0.00% |           0      0.00%      0.00% |           0      0.00%      0.00% |           0      0.00%      0.00% |           0      0.00%      0.00% |           1    100.00%    100.00% |           0      0.00%    100.00% (Unspecified)
system.caches.L2Cache_Controller.MT_SB.L1_GETX::total            1                       (Unspecified)
system.caches.L2Cache_Controller.MT_SB.L1_UPGRADE |           0      0.00%      0.00% |           0      0.00%      0.00% |           0      0.00%      0.00% |           0      0.00%      0.00% |           0      0.00%      0.00% |           1      3.12%      3.12% |          30     93.75%     96.88% |           1      3.12%    100.00% (Unspecified)
system.caches.L2Cache_Controller.MT_SB.L1_UPGRADE::total           32                       (Unspecified)
system.caches.L2Cache_Controller.MT_SB.Unblock |        9182     21.64%     21.64% |        3917      9.23%     30.88% |        4028      9.50%     40.37% |        3916      9.23%     49.60% |        4012      9.46%     59.06% |        4032      9.50%     68.57% |        4237      9.99%     78.55% |        9098     21.45%    100.00% (Unspecified)
system.caches.L2Cache_Controller.MT_SB.Unblock::total        42422                       (Unspecified)
system.caches.RequestType.LD.latency_hist_seqr::bucket_size          512                       (Unspecified)
system.caches.RequestType.LD.latency_hist_seqr::max_bucket         5119                       (Unspecified)
system.caches.RequestType.LD.latency_hist_seqr::samples     98589965                       (Unspecified)
system.caches.RequestType.LD.latency_hist_seqr::mean    16.254384                       (Unspecified)
system.caches.RequestType.LD.latency_hist_seqr::gmean     1.268104                       (Unspecified)
system.caches.RequestType.LD.latency_hist_seqr::stdev    95.925653                       (Unspecified)
system.caches.RequestType.LD.latency_hist_seqr |    97804103     99.20%     99.20% |      717874      0.73%     99.93% |       20255      0.02%     99.95% |       12468      0.01%     99.96% |       29498      0.03%     99.99% |        5238      0.01%    100.00% |         502      0.00%    100.00% |          27      0.00%    100.00% |           0      0.00%    100.00% |           0      0.00%    100.00% (Unspecified)
system.caches.RequestType.LD.latency_hist_seqr::total     98589965                       (Unspecified)
system.caches.RequestType.LD.hit_latency_hist_seqr::bucket_size            1                       (Unspecified)
system.caches.RequestType.LD.hit_latency_hist_seqr::max_bucket            9                       (Unspecified)
system.caches.RequestType.LD.hit_latency_hist_seqr::samples     93803380                       (Unspecified)
system.caches.RequestType.LD.hit_latency_hist_seqr::mean     1.001188                       (Unspecified)
system.caches.RequestType.LD.hit_latency_hist_seqr::gmean     1.000824                       (Unspecified)
system.caches.RequestType.LD.hit_latency_hist_seqr::stdev     0.034451                       (Unspecified)
system.caches.RequestType.LD.hit_latency_hist_seqr |           0      0.00%      0.00% |    93691917     99.88%     99.88% |      111462      0.12%    100.00% |           1      0.00%    100.00% |           0      0.00%    100.00% |           0      0.00%    100.00% |           0      0.00%    100.00% |           0      0.00%    100.00% |           0      0.00%    100.00% |           0      0.00%    100.00% (Unspecified)
system.caches.RequestType.LD.hit_latency_hist_seqr::total     93803380                       (Unspecified)
system.caches.RequestType.LD.miss_latency_hist_seqr::bucket_size          512                       (Unspecified)
system.caches.RequestType.LD.miss_latency_hist_seqr::max_bucket         5119                       (Unspecified)
system.caches.RequestType.LD.miss_latency_hist_seqr::samples      4786585                       (Unspecified)
system.caches.RequestType.LD.miss_latency_hist_seqr::mean   315.173416                       (Unspecified)
system.caches.RequestType.LD.miss_latency_hist_seqr::gmean   131.124224                       (Unspecified)
system.caches.RequestType.LD.miss_latency_hist_seqr::stdev   309.220442                       (Unspecified)
system.caches.RequestType.LD.miss_latency_hist_seqr |     4000723     83.58%     83.58% |      717874     15.00%     98.58% |       20255      0.42%     99.00% |       12468      0.26%     99.26% |       29498      0.62%     99.88% |        5238      0.11%     99.99% |         502      0.01%    100.00% |          27      0.00%    100.00% |           0      0.00%    100.00% |           0      0.00%    100.00% (Unspecified)
system.caches.RequestType.LD.miss_latency_hist_seqr::total      4786585                       (Unspecified)
system.caches.RequestType.ST.latency_hist_seqr::bucket_size          512                       (Unspecified)
system.caches.RequestType.ST.latency_hist_seqr::max_bucket         5119                       (Unspecified)
system.caches.RequestType.ST.latency_hist_seqr::samples      8832557                       (Unspecified)
system.caches.RequestType.ST.latency_hist_seqr::mean    17.289213                       (Unspecified)
system.caches.RequestType.ST.latency_hist_seqr::gmean     1.228698                       (Unspecified)
system.caches.RequestType.ST.latency_hist_seqr::stdev   102.661610                       (Unspecified)
system.caches.RequestType.ST.latency_hist_seqr |     8745065     99.01%     99.01% |       79158      0.90%     99.91% |        3815      0.04%     99.95% |        1014      0.01%     99.96% |        2716      0.03%     99.99% |         729      0.01%    100.00% |          57      0.00%    100.00% |           3      0.00%    100.00% |           0      0.00%    100.00% |           0      0.00%    100.00% (Unspecified)
system.caches.RequestType.ST.latency_hist_seqr::total      8832557                       (Unspecified)
system.caches.RequestType.ST.hit_latency_hist_seqr::bucket_size          512                       (Unspecified)
system.caches.RequestType.ST.hit_latency_hist_seqr::max_bucket         5119                       (Unspecified)
system.caches.RequestType.ST.hit_latency_hist_seqr::samples      8532271                       (Unspecified)
system.caches.RequestType.ST.hit_latency_hist_seqr::mean     1.011406                       (Unspecified)
system.caches.RequestType.ST.hit_latency_hist_seqr::gmean     1.003020                       (Unspecified)
system.caches.RequestType.ST.hit_latency_hist_seqr::stdev     2.798802                       (Unspecified)
system.caches.RequestType.ST.hit_latency_hist_seqr |     8532229    100.00%    100.00% |          22      0.00%    100.00% |          16      0.00%    100.00% |           1      0.00%    100.00% |           1      0.00%    100.00% |           1      0.00%    100.00% |           1      0.00%    100.00% |           0      0.00%    100.00% |           0      0.00%    100.00% |           0      0.00%    100.00% (Unspecified)
system.caches.RequestType.ST.hit_latency_hist_seqr::total      8532271                       (Unspecified)
system.caches.RequestType.ST.miss_latency_hist_seqr::bucket_size          512                       (Unspecified)
system.caches.RequestType.ST.miss_latency_hist_seqr::max_bucket         5119                       (Unspecified)
system.caches.RequestType.ST.miss_latency_hist_seqr::samples       300286                       (Unspecified)
system.caches.RequestType.ST.miss_latency_hist_seqr::mean   479.803810                       (Unspecified)
system.caches.RequestType.ST.miss_latency_hist_seqr::gmean   392.391859                       (Unspecified)
system.caches.RequestType.ST.miss_latency_hist_seqr::stdev   297.209283                       (Unspecified)
system.caches.RequestType.ST.miss_latency_hist_seqr |      212836     70.88%     70.88% |       79136     26.35%     97.23% |        3799      1.27%     98.50% |        1013      0.34%     98.83% |        2715      0.90%     99.74% |         728      0.24%     99.98% |          56      0.02%    100.00% |           3      0.00%    100.00% |           0      0.00%    100.00% |           0      0.00%    100.00% (Unspecified)
system.caches.RequestType.ST.miss_latency_hist_seqr::total       300286                       (Unspecified)
system.caches.RequestType.IFETCH.latency_hist_seqr::bucket_size          256                       (Unspecified)
system.caches.RequestType.IFETCH.latency_hist_seqr::max_bucket         2559                       (Unspecified)
system.caches.RequestType.IFETCH.latency_hist_seqr::samples     63214806                       (Unspecified)
system.caches.RequestType.IFETCH.latency_hist_seqr::mean     1.076084                       (Unspecified)
system.caches.RequestType.IFETCH.latency_hist_seqr::gmean     1.002824                       (Unspecified)
system.caches.RequestType.IFETCH.latency_hist_seqr::stdev     4.964258                       (Unspecified)
system.caches.RequestType.IFETCH.latency_hist_seqr |    63208819     99.99%     99.99% |        5475      0.01%    100.00% |         366      0.00%    100.00% |          50      0.00%    100.00% |          18      0.00%    100.00% |          23      0.00%    100.00% |          25      0.00%    100.00% |           9      0.00%    100.00% |          12      0.00%    100.00% |           9      0.00%    100.00% (Unspecified)
system.caches.RequestType.IFETCH.latency_hist_seqr::total     63214806                       (Unspecified)
system.caches.RequestType.IFETCH.hit_latency_hist_seqr::bucket_size            1                       (Unspecified)
system.caches.RequestType.IFETCH.hit_latency_hist_seqr::max_bucket            9                       (Unspecified)
system.caches.RequestType.IFETCH.hit_latency_hist_seqr::samples     63163981                       (Unspecified)
system.caches.RequestType.IFETCH.hit_latency_hist_seqr::mean     1.000000                       (Unspecified)
system.caches.RequestType.IFETCH.hit_latency_hist_seqr::gmean     1.000000                       (Unspecified)
system.caches.RequestType.IFETCH.hit_latency_hist_seqr::stdev     0.000519                       (Unspecified)
[...]
system.o3Cpu7.iew.predictedTakenIncorrect       553784                       # Number of branches that were predicted taken incorrectly (Count)
system.o3Cpu7.iew.predictedNotTakenIncorrect       684582                       # Number of branches that were predicted not taken incorrectly (Count)
system.o3Cpu7.iew.branchMispredicts           1238366                       # Number of branch mispredicts detected at execute (Count)
system.o3Cpu7.iew.instsToCommit             116316839                       # Cumulative count of insts sent to commit (Count)
system.o3Cpu7.iew.writebackCount            115871557                       # Cumulative count of insts written-back (Count)
system.o3Cpu7.iew.producerInst               91263108                       # Number of instructions producing a value (Count)
system.o3Cpu7.iew.consumerInst              136672605                       # Number of instructions consuming a value (Count)
system.o3Cpu7.iew.wbRate                     0.829856                       # Insts written-back per cycle ((Count/Cycle))
system.o3Cpu7.iew.wbFanout                   0.667750                       # Average fanout of values written-back ((Count/Count))
system.o3Cpu7.interrupts.clk_domain.clock         3200                       # Clock period in ticks (Tick)
system.o3Cpu7.lsq0.forwLoads                    60564                       # Number of loads that had data forwarded from stores (Count)
system.o3Cpu7.lsq0.squashedLoads              8973802                       # Number of loads squashed (Count)
system.o3Cpu7.lsq0.ignoredResponses               819                       # Number of memory responses ignored because the instruction is squashed (Count)
system.o3Cpu7.lsq0.memOrderViolation              751                       # Number of memory ordering violations (Count)
system.o3Cpu7.lsq0.squashedStores             1534927                       # Number of stores squashed (Count)
system.o3Cpu7.lsq0.rescheduledLoads                22                       # Number of loads that were rescheduled (Count)
system.o3Cpu7.lsq0.blockedByCache              150765                       # Number of times an access to memory failed due to the cache being blocked (Count)
system.o3Cpu7.lsq0.loadToUse::samples         9774547                       # Distribution of cycle latency between the first time a load is issued and its completion (Unspecified)
system.o3Cpu7.lsq0.loadToUse::mean          52.702094                       # Distribution of cycle latency between the first time a load is issued and its completion (Unspecified)
system.o3Cpu7.lsq0.loadToUse::stdev        163.579146                       # Distribution of cycle latency between the first time a load is issued and its completion (Unspecified)
system.o3Cpu7.lsq0.loadToUse::0-9             8233191     84.23%     84.23% # Distribution of cycle latency between the first time a load is issued and its completion (Unspecified)
system.o3Cpu7.lsq0.loadToUse::10-19            204145      2.09%     86.32% # Distribution of cycle latency between the first time a load is issued and its completion (Unspecified)
system.o3Cpu7.lsq0.loadToUse::20-29             93420      0.96%     87.28% # Distribution of cycle latency between the first time a load is issued and its completion (Unspecified)
system.o3Cpu7.lsq0.loadToUse::30-39             30939      0.32%     87.59% # Distribution of cycle latency between the first time a load is issued and its completion (Unspecified)
system.o3Cpu7.lsq0.loadToUse::40-49             12915      0.13%     87.72% # Distribution of cycle latency between the first time a load is issued and its completion (Unspecified)
system.o3Cpu7.lsq0.loadToUse::50-59              6572      0.07%     87.79% # Distribution of cycle latency between the first time a load is issued and its completion (Unspecified)
system.o3Cpu7.lsq0.loadToUse::60-69              4573      0.05%     87.84% # Distribution of cycle latency between the first time a load is issued and its completion (Unspecified)
system.o3Cpu7.lsq0.loadToUse::70-79              3949      0.04%     87.88% # Distribution of cycle latency between the first time a load is issued and its completion (Unspecified)
system.o3Cpu7.lsq0.loadToUse::80-89              3620      0.04%     87.92% # Distribution of cycle latency between the first time a load is issued and its completion (Unspecified)
system.o3Cpu7.lsq0.loadToUse::90-99              3472      0.04%     87.95% # Distribution of cycle latency between the first time a load is issued and its completion (Unspecified)
system.o3Cpu7.lsq0.loadToUse::100-109            3549      0.04%     87.99% # Distribution of cycle latency between the first time a load is issued and its completion (Unspecified)
system.o3Cpu7.lsq0.loadToUse::110-119            3565      0.04%     88.02% # Distribution of cycle latency between the first time a load is issued and its completion (Unspecified)
system.o3Cpu7.lsq0.loadToUse::120-129            3873      0.04%     88.06% # Distribution of cycle latency between the first time a load is issued and its completion (Unspecified)
system.o3Cpu7.lsq0.loadToUse::130-139            4146      0.04%     88.11% # Distribution of cycle latency between the first time a load is issued and its completion (Unspecified)
system.o3Cpu7.lsq0.loadToUse::140-149            3937      0.04%     88.15% # Distribution of cycle latency between the first time a load is issued and its completion (Unspecified)
system.o3Cpu7.lsq0.loadToUse::150-159            4202      0.04%     88.19% # Distribution of cycle latency between the first time a load is issued and its completion (Unspecified)
system.o3Cpu7.lsq0.loadToUse::160-169            4612      0.05%     88.24% # Distribution of cycle latency between the first time a load is issued and its completion (Unspecified)
system.o3Cpu7.lsq0.loadToUse::170-179            4886      0.05%     88.29% # Distribution of cycle latency between the first time a load is issued and its completion (Unspecified)
system.o3Cpu7.lsq0.loadToUse::180-189           36341      0.37%     88.66% # Distribution of cycle latency between the first time a load is issued and its completion (Unspecified)
system.o3Cpu7.lsq0.loadToUse::190-199           80823      0.83%     89.48% # Distribution of cycle latency between the first time a load is issued and its completion (Unspecified)
system.o3Cpu7.lsq0.loadToUse::200-209           74007      0.76%     90.24% # Distribution of cycle latency between the first time a load is issued and its completion (Unspecified)
system.o3Cpu7.lsq0.loadToUse::210-219           28947      0.30%     90.54% # Distribution of cycle latency between the first time a load is issued and its completion (Unspecified)
system.o3Cpu7.lsq0.loadToUse::220-229           11698      0.12%     90.66% # Distribution of cycle latency between the first time a load is issued and its completion (Unspecified)
system.o3Cpu7.lsq0.loadToUse::230-239           10838      0.11%     90.77% # Distribution of cycle latency between the first time a load is issued and its completion (Unspecified)
system.o3Cpu7.lsq0.loadToUse::240-249           11032      0.11%     90.88% # Distribution of cycle latency between the first time a load is issued and its completion (Unspecified)
system.o3Cpu7.lsq0.loadToUse::250-259           17024      0.17%     91.06% # Distribution of cycle latency between the first time a load is issued and its completion (Unspecified)
system.o3Cpu7.lsq0.loadToUse::260-269           23958      0.25%     91.30% # Distribution of cycle latency between the first time a load is issued and its completion (Unspecified)
system.o3Cpu7.lsq0.loadToUse::270-279           24378      0.25%     91.55% # Distribution of cycle latency between the first time a load is issued and its completion (Unspecified)
system.o3Cpu7.lsq0.loadToUse::280-289           17342      0.18%     91.73% # Distribution of cycle latency between the first time a load is issued and its completion (Unspecified)
system.o3Cpu7.lsq0.loadToUse::290-299           15515      0.16%     91.89% # Distribution of cycle latency between the first time a load is issued and its completion (Unspecified)
system.o3Cpu7.lsq0.loadToUse::overflows        793078      8.11%    100.00% # Distribution of cycle latency between the first time a load is issued and its completion (Unspecified)
system.o3Cpu7.lsq0.loadToUse::min_value             2                       # Distribution of cycle latency between the first time a load is issued and its completion (Unspecified)
system.o3Cpu7.lsq0.loadToUse::max_value          4094                       # Distribution of cycle latency between the first time a load is issued and its completion (Unspecified)
system.o3Cpu7.lsq0.loadToUse::total           9774547                       # Distribution of cycle latency between the first time a load is issued and its completion (Unspecified)
system.o3Cpu7.mmu.dtb.rdAccesses             16458434                       # TLB accesses on read requests (Count)
system.o3Cpu7.mmu.dtb.wrAccesses              1724447                       # TLB accesses on write requests (Count)
system.o3Cpu7.mmu.dtb.rdMisses                 464514                       # TLB misses on read requests (Count)
system.o3Cpu7.mmu.dtb.wrMisses                    806                       # TLB misses on write requests (Count)
system.o3Cpu7.mmu.dtb.walker.power_state.pwrStateResidencyTicks::UNDEFINED  30279212799                       # Cumulative time (in ticks) in various power states (Tick)
system.o3Cpu7.mmu.itb.rdAccesses                    0                       # TLB accesses on read requests (Count)
system.o3Cpu7.mmu.itb.wrAccesses              7892819                       # TLB accesses on write requests (Count)
system.o3Cpu7.mmu.itb.rdMisses                      0                       # TLB misses on read requests (Count)
system.o3Cpu7.mmu.itb.wrMisses                    233                       # TLB misses on write requests (Count)
system.o3Cpu7.mmu.itb.walker.power_state.pwrStateResidencyTicks::UNDEFINED  30279212799                       # Cumulative time (in ticks) in various power states (Tick)
system.o3Cpu7.power_state.numTransitions           10                       # Number of power state transitions (Count)
system.o3Cpu7.power_state.ticksClkGated::samples            5                       # Distribution of time spent in the clock gated state (Tick)
system.o3Cpu7.power_state.ticksClkGated::mean    268207680                       # Distribution of time spent in the clock gated state (Tick)
system.o3Cpu7.power_state.ticksClkGated::stdev 182697199.994833                       # Distribution of time spent in the clock gated state (Tick)
system.o3Cpu7.power_state.ticksClkGated::1000-5e+10            5    100.00%    100.00% # Distribution of time spent in the clock gated state (Tick)
system.o3Cpu7.power_state.ticksClkGated::min_value     47737800                       # Distribution of time spent in the clock gated state (Tick)
system.o3Cpu7.power_state.ticksClkGated::max_value    505860600                       # Distribution of time spent in the clock gated state (Tick)
system.o3Cpu7.power_state.ticksClkGated::total            5                       # Distribution of time spent in the clock gated state (Tick)
system.o3Cpu7.power_state.pwrStateResidencyTicks::ON  14522807400                       # Cumulative time (in ticks) in various power states (Tick)
system.o3Cpu7.power_state.pwrStateResidencyTicks::CLK_GATED   1341038400                       # Cumulative time (in ticks) in various power states (Tick)
system.o3Cpu7.power_state.pwrStateResidencyTicks::OFF  14415366999                       # Cumulative time (in ticks) in various power states (Tick)
system.o3Cpu7.rename.squashCycles             1076278                       # Number of cycles rename is squashing (Cycle)
system.o3Cpu7.rename.idleCycles              12336746                       # Number of cycles rename is idle (Cycle)
system.o3Cpu7.rename.blockCycles             75977607                       # Number of cycles rename is blocking (Cycle)
system.o3Cpu7.rename.serializeStallCycles       206983                       # count of cycles rename stalled for serializing inst (Cycle)
system.o3Cpu7.rename.runCycles               20550545                       # Number of cycles rename is running (Cycle)
system.o3Cpu7.rename.unblockCycles            4889909                       # Number of cycles rename is unblocking (Cycle)
system.o3Cpu7.rename.renamedInsts           145623692                       # Number of instructions processed by rename (Count)
system.o3Cpu7.rename.ROBFullEvents            1102892                       # Number of times rename has blocked due to ROB full (Count)
system.o3Cpu7.rename.IQFullEvents             1443539                       # Number of times rename has blocked due to IQ full (Count)
system.o3Cpu7.rename.LQFullEvents             2241973                       # Number of times rename has blocked due to LQ full (Count)
system.o3Cpu7.rename.SQFullEvents              229055                       # Number of times rename has blocked due to SQ full (Count)
system.o3Cpu7.rename.renamedOperands        315342976                       # Number of destination operands rename has renamed (Count)
system.o3Cpu7.rename.lookups                540349014                       # Number of register rename lookups that rename has made (Count)
system.o3Cpu7.rename.intLookups             178975016                       # Number of integer rename lookups (Count)
system.o3Cpu7.rename.fpLookups                  22650                       # Number of floating rename lookups (Count)
system.o3Cpu7.rename.committedMaps          159486957                       # Number of HB maps that are committed (Count)
system.o3Cpu7.rename.undoneMaps             155855928                       # Number of HB maps that are undone due to squashing (Count)
system.o3Cpu7.rename.serializing                 1877                       # count of serializing insts renamed (Count)
system.o3Cpu7.rename.tempSerializing             1967                       # count of temporary serializing insts renamed (Count)
system.o3Cpu7.rename.skidInsts                8734108                       # count of insts added to the skid buffer (Count)
system.o3Cpu7.rob.reads                     238722592                       # The number of ROB reads (Count)
system.o3Cpu7.rob.writes                    280994525                       # The number of ROB writes (Count)
system.o3Cpu7.thread_0.numInsts              44787812                       # Number of Instructions committed (Count)
system.o3Cpu7.thread_0.numOps                75084672                       # Number of Ops committed (Count)
system.o3Cpu7.thread_0.numMemRefs                   0                       # Number of Memory References (Count)
system.pc.bad_addr.power_state.pwrStateResidencyTicks::UNDEFINED  30279212799                       # Cumulative time (in ticks) in various power states (Tick)
system.pc.com_1.power_state.pwrStateResidencyTicks::UNDEFINED  30279212799                       # Cumulative time (in ticks) in various power states (Tick)
system.pc.default_bus.power_state.pwrStateResidencyTicks::UNDEFINED  30279212799                       # Cumulative time (in ticks) in various power states (Tick)
system.pc.empty_isa.power_state.pwrStateResidencyTicks::UNDEFINED  30279212799                       # Cumulative time (in ticks) in various power states (Tick)
system.pc.fake_com_2.power_state.pwrStateResidencyTicks::UNDEFINED  30279212799                       # Cumulative time (in ticks) in various power states (Tick)
system.pc.fake_com_3.power_state.pwrStateResidencyTicks::UNDEFINED  30279212799                       # Cumulative time (in ticks) in various power states (Tick)
system.pc.fake_com_4.power_state.pwrStateResidencyTicks::UNDEFINED  30279212799                       # Cumulative time (in ticks) in various power states (Tick)
system.pc.fake_floppy.power_state.pwrStateResidencyTicks::UNDEFINED  30279212799                       # Cumulative time (in ticks) in various power states (Tick)
system.pc.pci_host.power_state.pwrStateResidencyTicks::UNDEFINED  30279212799                       # Cumulative time (in ticks) in various power states (Tick)
system.pc.south_bridge.cmos.power_state.pwrStateResidencyTicks::UNDEFINED  30279212799                       # Cumulative time (in ticks) in various power states (Tick)
system.pc.south_bridge.dma1.power_state.pwrStateResidencyTicks::UNDEFINED  30279212799                       # Cumulative time (in ticks) in various power states (Tick)
system.pc.south_bridge.ide.disks0.IdeDisk.dmaReadFullPages            0                       # Number of full page size DMA reads (not PRD). (Count)
system.pc.south_bridge.ide.disks0.IdeDisk.dmaReadBytes            0                       # Number of bytes transfered via DMA reads (not PRD). (Byte)
system.pc.south_bridge.ide.disks0.IdeDisk.dmaReadTxs            0                       # Number of DMA read transactions (not PRD). (Count)
system.pc.south_bridge.ide.disks0.IdeDisk.dmaWriteFullPages            0                       # Number of full page size DMA writes. (Count)
system.pc.south_bridge.ide.disks0.IdeDisk.dmaWriteBytes            0                       # Number of bytes transfered via DMA writes. (Byte)
system.pc.south_bridge.ide.disks0.IdeDisk.dmaWriteTxs            0                       # Number of DMA write transactions. (Count)
system.pc.south_bridge.ide.disks1.IdeDisk.dmaReadFullPages            0                       # Number of full page size DMA reads (not PRD). (Count)
system.pc.south_bridge.ide.disks1.IdeDisk.dmaReadBytes            0                       # Number of bytes transfered via DMA reads (not PRD). (Byte)
system.pc.south_bridge.ide.disks1.IdeDisk.dmaReadTxs            0                       # Number of DMA read transactions (not PRD). (Count)
system.pc.south_bridge.ide.disks1.IdeDisk.dmaWriteFullPages            0                       # Number of full page size DMA writes. (Count)
system.pc.south_bridge.ide.disks1.IdeDisk.dmaWriteBytes            0                       # Number of bytes transfered via DMA writes. (Byte)
system.pc.south_bridge.ide.disks1.IdeDisk.dmaWriteTxs            0                       # Number of DMA write transactions. (Count)
system.pc.south_bridge.ide.power_state.pwrStateResidencyTicks::UNDEFINED  30279212799                       # Cumulative time (in ticks) in various power states (Tick)
system.pc.south_bridge.io_apic.power_state.pwrStateResidencyTicks::UNDEFINED  30279212799                       # Cumulative time (in ticks) in various power states (Tick)
system.pc.south_bridge.keyboard.power_state.pwrStateResidencyTicks::UNDEFINED  30279212799                       # Cumulative time (in ticks) in various power states (Tick)
system.pc.south_bridge.pic1.power_state.pwrStateResidencyTicks::UNDEFINED  30279212799                       # Cumulative time (in ticks) in various power states (Tick)
system.pc.south_bridge.pic2.power_state.pwrStateResidencyTicks::UNDEFINED  30279212799                       # Cumulative time (in ticks) in various power states (Tick)
system.pc.south_bridge.pit.power_state.pwrStateResidencyTicks::UNDEFINED  30279212799                       # Cumulative time (in ticks) in various power states (Tick)
system.pc.south_bridge.speaker.power_state.pwrStateResidencyTicks::UNDEFINED  30279212799                       # Cumulative time (in ticks) in various power states (Tick)
system.workload.inst.arm                            0                       # number of arm instructions executed (Count)
system.workload.inst.quiesce                        0                       # number of quiesce instructions executed (Count)

---------- End Simulation Statistics   ----------
