
---------- Begin Simulation Statistics ----------
simSeconds                                   0.019297                       # Number of seconds simulated (Second)
simTicks                                  19297002750                       # Number of ticks simulated (Tick)
finalTick                                217535523832200                       # Number of ticks from beginning of simulation (restored from checkpoints and never reset) (Tick)
simFreq                                  1000000000000                       # The number of ticks per simulated second ((Tick/Second))
hostSeconds                                   8909.03                       # Real time elapsed on the host (Second)
hostTickRate                                  2166005                       # The number of ticks simulated per host second (ticks/s) ((Tick/Second))
hostMemory                                   19699688                       # Number of bytes of host memory used (Byte)
simInsts                                    231214864                       # Number of instructions simulated (Count)
simOps                                      368991673                       # Number of ops (including micro ops) simulated (Count)
hostInstRate                                    25953                       # Simulator instruction rate (inst/s) ((Count/Second))
hostOpRate                                      41418                       # Simulator op (including micro ops) rate (op/s) ((Count/Second))
system.caches.delayHistogram::bucket_size          128                       # delay histogram for all message (Unspecified)
system.caches.delayHistogram::max_bucket         1279                       # delay histogram for all message (Unspecified)
system.caches.delayHistogram::samples        14056509                       # delay histogram for all message (Unspecified)
system.caches.delayHistogram::mean           0.220631                       # delay histogram for all message (Unspecified)
system.caches.delayHistogram::stdev          1.629516                       # delay histogram for all message (Unspecified)
system.caches.delayHistogram             |    14056476    100.00%    100.00% |          11      0.00%    100.00% |           3      0.00%    100.00% |           5      0.00%    100.00% |           2      0.00%    100.00% |           1      0.00%    100.00% |           4      0.00%    100.00% |           2      0.00%    100.00% |           4      0.00%    100.00% |           1      0.00%    100.00% # delay histogram for all message (Unspecified)
system.caches.delayHistogram::total          14056509                       # delay histogram for all message (Unspecified)
system.caches.m_outstandReqHistSeqr::bucket_size            2                       (Unspecified)
system.caches.m_outstandReqHistSeqr::max_bucket           19                       (Unspecified)
system.caches.m_outstandReqHistSeqr::samples    169159589                       (Unspecified)
system.caches.m_outstandReqHistSeqr::mean     2.411837                       (Unspecified)
system.caches.m_outstandReqHistSeqr::gmean     1.859145                       (Unspecified)
system.caches.m_outstandReqHistSeqr::stdev     2.063254                       (Unspecified)
system.caches.m_outstandReqHistSeqr      |    78519942     46.42%     46.42% |    56733040     33.54%     79.96% |    20277486     11.99%     91.94% |     7684622      4.54%     96.49% |     3133862      1.85%     98.34% |     1548994      0.92%     99.25% |     1199129      0.71%     99.96% |       48804      0.03%     99.99% |       13710      0.01%    100.00% |           0      0.00%    100.00% (Unspecified)
system.caches.m_outstandReqHistSeqr::total    169159589                       (Unspecified)
system.caches.m_latencyHistSeqr::bucket_size          512                       (Unspecified)
system.caches.m_latencyHistSeqr::max_bucket         5119                       (Unspecified)
system.caches.m_latencyHistSeqr::samples    170524125                       (Unspecified)
system.caches.m_latencyHistSeqr::mean        5.728600                       (Unspecified)
system.caches.m_latencyHistSeqr::gmean       1.078404                       (Unspecified)
system.caches.m_latencyHistSeqr::stdev      52.620916                       (Unspecified)
system.caches.m_latencyHistSeqr          |   170158489     99.79%     99.79% |      330970      0.19%     99.98% |        8010      0.00%     99.98% |        8903      0.01%     99.99% |       15329      0.01%    100.00% |        2213      0.00%    100.00% |         196      0.00%    100.00% |          14      0.00%    100.00% |           1      0.00%    100.00% |           0      0.00%    100.00% (Unspecified)
system.caches.m_latencyHistSeqr::total      170524125                       (Unspecified)
system.caches.m_hitLatencyHistSeqr::bucket_size          512                       (Unspecified)
system.caches.m_hitLatencyHistSeqr::max_bucket         5119                       (Unspecified)
system.caches.m_hitLatencyHistSeqr::samples    168368679                       (Unspecified)
system.caches.m_hitLatencyHistSeqr::mean     1.009313                       (Unspecified)
system.caches.m_hitLatencyHistSeqr::gmean     1.006251                       (Unspecified)
system.caches.m_hitLatencyHistSeqr::stdev     0.483518                       (Unspecified)
system.caches.m_hitLatencyHistSeqr       |   168368644    100.00%    100.00% |          32      0.00%    100.00% |           1      0.00%    100.00% |           0      0.00%    100.00% |           1      0.00%    100.00% |           1      0.00%    100.00% |           0      0.00%    100.00% |           0      0.00%    100.00% |           0      0.00%    100.00% |           0      0.00%    100.00% (Unspecified)
system.caches.m_hitLatencyHistSeqr::total    168368679                       (Unspecified)
system.caches.m_missLatencyHistSeqr::bucket_size          512                       (Unspecified)
system.caches.m_missLatencyHistSeqr::max_bucket         5119                       (Unspecified)
system.caches.m_missLatencyHistSeqr::samples      2155446                       (Unspecified)
system.caches.m_missLatencyHistSeqr::mean   374.366979                       (Unspecified)
system.caches.m_missLatencyHistSeqr::gmean   241.001739                       (Unspecified)
system.caches.m_missLatencyHistSeqr::stdev   285.322663                       (Unspecified)
system.caches.m_missLatencyHistSeqr      |     1789845     83.04%     83.04% |      330938     15.35%     98.39% |        8009      0.37%     98.76% |        8903      0.41%     99.18% |       15328      0.71%     99.89% |        2212      0.10%     99.99% |         196      0.01%    100.00% |          14      0.00%    100.00% |           1      0.00%    100.00% |           0      0.00%    100.00% (Unspecified)
system.caches.m_missLatencyHistSeqr::total      2155446                       (Unspecified)
system.caches.delayVCHist.vnet_0::bucket_size          128                       # delay histogram for vnet_0 (Unspecified)
system.caches.delayVCHist.vnet_0::max_bucket         1279                       # delay histogram for vnet_0 (Unspecified)
system.caches.delayVCHist.vnet_0::samples      5907574                       # delay histogram for vnet_0 (Unspecified)
system.caches.delayVCHist.vnet_0::mean       0.424171                       # delay histogram for vnet_0 (Unspecified)
system.caches.delayVCHist.vnet_0::stdev      2.384845                       # delay histogram for vnet_0 (Unspecified)
system.caches.delayVCHist.vnet_0         |     5907541    100.00%    100.00% |          11      0.00%    100.00% |           3      0.00%    100.00% |           5      0.00%    100.00% |           2      0.00%    100.00% |           1      0.00%    100.00% |           4      0.00%    100.00% |           2      0.00%    100.00% |           4      0.00%    100.00% |           1      0.00%    100.00% # delay histogram for vnet_0 (Unspecified)
system.caches.delayVCHist.vnet_0::total       5907574                       # delay histogram for vnet_0 (Unspecified)
system.caches.delayVCHist.vnet_1::bucket_size            8                       # delay histogram for vnet_1 (Unspecified)
system.caches.delayVCHist.vnet_1::max_bucket           79                       # delay histogram for vnet_1 (Unspecified)
system.caches.delayVCHist.vnet_1::samples      7882825                       # delay histogram for vnet_1 (Unspecified)
system.caches.delayVCHist.vnet_1::mean       0.075533                       # delay histogram for vnet_1 (Unspecified)
system.caches.delayVCHist.vnet_1::stdev      0.647172                       # delay histogram for vnet_1 (Unspecified)
system.caches.delayVCHist.vnet_1         |     7868426     99.82%     99.82% |       13596      0.17%     99.99% |         663      0.01%    100.00% |         110      0.00%    100.00% |          23      0.00%    100.00% |           4      0.00%    100.00% |           3      0.00%    100.00% |           0      0.00%    100.00% |           0      0.00%    100.00% |           0      0.00%    100.00% # delay histogram for vnet_1 (Unspecified)
system.caches.delayVCHist.vnet_1::total       7882825                       # delay histogram for vnet_1 (Unspecified)
system.caches.delayVCHist.vnet_2::bucket_size            1                       # delay histogram for vnet_2 (Unspecified)
system.caches.delayVCHist.vnet_2::max_bucket            9                       # delay histogram for vnet_2 (Unspecified)
system.caches.delayVCHist.vnet_2::samples       266110                       # delay histogram for vnet_2 (Unspecified)
system.caches.delayVCHist.vnet_2::mean       0.000263                       # delay histogram for vnet_2 (Unspecified)
system.caches.delayVCHist.vnet_2::stdev      0.022935                       # delay histogram for vnet_2 (Unspecified)
system.caches.delayVCHist.vnet_2         |      266075     99.99%     99.99% |           0      0.00%     99.99% |          35      0.01%    100.00% |           0      0.00%    100.00% |           0      0.00%    100.00% |           0      0.00%    100.00% |           0      0.00%    100.00% |           0      0.00%    100.00% |           0      0.00%    100.00% |           0      0.00%    100.00% # delay histogram for vnet_2 (Unspecified)
system.caches.delayVCHist.vnet_2::total        266110                       # delay histogram for vnet_2 (Unspecified)
system.caches.L1Cache_Controller.Load    |    10654570     12.41%     12.41% |    10760176     12.54%     24.95% |    10959378     12.77%     37.72% |    10907693     12.71%     50.43% |    10762875     12.54%     62.97% |    10468200     12.20%     75.17% |    10640458     12.40%     87.57% |    10671204     12.43%    100.00% (Unspecified)
system.caches.L1Cache_Controller.Load::total     85824554                       (Unspecified)
system.caches.L1Cache_Controller.Ifetch  |    10308236     12.55%     12.55% |    10286561     12.52%     25.07% |    10246757     12.47%     37.55% |    10266106     12.50%     50.04% |    10261281     12.49%     62.53% |    10310557     12.55%     75.09% |    10239797     12.47%     87.55% |    10225282     12.45%    100.00% (Unspecified)
system.caches.L1Cache_Controller.Ifetch::total     82144577                       (Unspecified)
system.caches.L1Cache_Controller.Store   |      315278     12.34%     12.34% |      310872     12.17%     24.51% |      310452     12.15%     36.66% |      310401     12.15%     48.81% |      330291     12.93%     61.73% |      357479     13.99%     75.73% |      310124     12.14%     87.86% |      310099     12.14%    100.00% (Unspecified)
system.caches.L1Cache_Controller.Store::total      2554996                       (Unspecified)
system.caches.L1Cache_Controller.Inv     |       29812     13.45%     13.45% |       27540     12.43%     25.88% |       27261     12.30%     38.18% |       27161     12.26%     50.43% |       27295     12.32%     62.75% |       28141     12.70%     75.45% |       27284     12.31%     87.76% |       27126     12.24%    100.00% (Unspecified)
system.caches.L1Cache_Controller.Inv::total       221620                       (Unspecified)
system.caches.L1Cache_Controller.L1_Replacement |      270214     12.81%     12.81% |      264992     12.56%     25.38% |      263208     12.48%     37.85% |      263344     12.49%     50.34% |      261937     12.42%     62.76% |      264322     12.53%     75.29% |      260186     12.34%     87.63% |      260969     12.37%    100.00% (Unspecified)
system.caches.L1Cache_Controller.L1_Replacement::total      2109172                       (Unspecified)
system.caches.L1Cache_Controller.Fwd_GETX |         131     12.10%     12.10% |         137     12.65%     24.75% |         139     12.83%     37.58% |         142     13.11%     50.69% |         137     12.65%     63.34% |         120     11.08%     74.42% |         140     12.93%     87.35% |         137     12.65%    100.00% (Unspecified)
system.caches.L1Cache_Controller.Fwd_GETX::total         1083                       (Unspecified)
system.caches.L1Cache_Controller.Fwd_GETS |        6124     14.11%     14.11% |        5724     13.19%     27.30% |        5566     12.82%     40.12% |        5404     12.45%     52.57% |        5246     12.09%     64.65% |        5183     11.94%     76.59% |        5124     11.80%     88.40% |        5036     11.60%    100.00% (Unspecified)
system.caches.L1Cache_Controller.Fwd_GETS::total        43407                       (Unspecified)
system.caches.L1Cache_Controller.Data    |          40     85.11%     85.11% |           2      4.26%     89.36% |           0      0.00%     89.36% |           0      0.00%     89.36% |           1      2.13%     91.49% |           2      4.26%     95.74% |           2      4.26%    100.00% |           0      0.00%    100.00% (Unspecified)
system.caches.L1Cache_Controller.Data::total           47                       (Unspecified)
system.caches.L1Cache_Controller.Data_Exclusive |      239104     12.73%     12.73% |      235991     12.57%     25.30% |      234489     12.49%     37.79% |      234726     12.50%     50.28% |      233252     12.42%     62.71% |      234796     12.50%     75.21% |      232326     12.37%     87.58% |      233233     12.42%    100.00% (Unspecified)
system.caches.L1Cache_Controller.Data_Exclusive::total      1877917                       (Unspecified)
system.caches.L1Cache_Controller.DataS_fromL1 |        5339     12.30%     12.30% |        5626     12.96%     25.26% |        5503     12.68%     37.94% |        5403     12.45%     50.39% |        5389     12.42%     62.80% |        5451     12.56%     75.36% |        5382     12.40%     87.76% |        5314     12.24%    100.00% (Unspecified)
system.caches.L1Cache_Controller.DataS_fromL1::total        43407                       (Unspecified)
system.caches.L1Cache_Controller.Data_all_Acks |       29593     13.39%     13.39% |       27588     12.48%     25.87% |       27379     12.38%     38.25% |       27463     12.42%     50.67% |       27515     12.45%     63.12% |       28227     12.77%     75.89% |       26693     12.07%     87.96% |       26613     12.04%    100.00% (Unspecified)
system.caches.L1Cache_Controller.Data_all_Acks::total       221071                       (Unspecified)
system.caches.L1Cache_Controller.Ack     |        9787     21.04%     21.04% |        7085     15.23%     36.28% |        5839     12.55%     48.83% |        5269     11.33%     60.16% |        5140     11.05%     71.21% |        4265      9.17%     80.38% |        4597      9.88%     90.26% |        4529      9.74%    100.00% (Unspecified)
system.caches.L1Cache_Controller.Ack::total        46511                       (Unspecified)
system.caches.L1Cache_Controller.Ack_all |        2251     17.25%     17.25% |        1865     14.29%     31.54% |        1710     13.10%     44.64% |        1576     12.08%     56.72% |        1523     11.67%     68.39% |        1283      9.83%     78.22% |        1429     10.95%     89.17% |        1414     10.83%    100.00% (Unspecified)
system.caches.L1Cache_Controller.Ack_all::total        13051                       (Unspecified)
system.caches.L1Cache_Controller.WB_Ack  |      234056     12.92%     12.92% |      226967     12.53%     25.45% |      225654     12.46%     37.91% |      226108     12.48%     50.39% |      224548     12.40%     62.78% |      226363     12.50%     75.28% |      223432     12.33%     87.61% |      224429     12.39%    100.00% (Unspecified)
system.caches.L1Cache_Controller.WB_Ack::total      1811557                       (Unspecified)
system.caches.L1Cache_Controller.NP.Load |      268082     12.80%     12.80% |      263425     12.58%     25.37% |      261679     12.49%     37.86% |      261813     12.50%     50.36% |      260060     12.41%     62.78% |      261602     12.49%     75.27% |      258690     12.35%     87.61% |      259442     12.39%    100.00% (Unspecified)
system.caches.L1Cache_Controller.NP.Load::total      2094793                       (Unspecified)
system.caches.L1Cache_Controller.NP.Ifetch |        1671     13.10%     13.10% |        1458     11.43%     24.54% |        1414     11.09%     35.63% |        1422     11.15%     46.78% |        1809     14.19%     60.96% |        2154     16.89%     77.85% |        1403     11.00%     88.86% |        1421     11.14%    100.00% (Unspecified)
system.caches.L1Cache_Controller.NP.Ifetch::total        12752                       (Unspecified)
system.caches.L1Cache_Controller.NP.Store |         809     15.55%     15.55% |         562     10.80%     26.35% |         562     10.80%     37.14% |         550     10.57%     47.71% |         534     10.26%     57.97% |        1109     21.31%     79.29% |         540     10.38%     89.66% |         538     10.34%    100.00% (Unspecified)
system.caches.L1Cache_Controller.NP.Store::total         5204                       (Unspecified)
system.caches.L1Cache_Controller.NP.Inv  |       22450     14.77%     14.77% |       18693     12.30%     27.07% |       18595     12.23%     39.30% |       18574     12.22%     51.52% |       18411     12.11%     63.64% |       18986     12.49%     76.13% |       18223     11.99%     88.12% |       18057     11.88%    100.00% (Unspecified)
system.caches.L1Cache_Controller.NP.Inv::total       151989                       (Unspecified)
system.caches.L1Cache_Controller.I.Load  |        1552     10.03%     10.03% |        1996     12.91%     22.94% |        1964     12.70%     35.64% |        2044     13.22%     48.86% |        1987     12.85%     61.70% |        1923     12.43%     74.14% |        2011     13.00%     87.14% |        1989     12.86%    100.00% (Unspecified)
system.caches.L1Cache_Controller.I.Load::total        15466                       (Unspecified)
system.caches.L1Cache_Controller.I.Ifetch |        1827     13.85%     13.85% |        1637     12.41%     26.26% |        1624     12.31%     38.57% |        1634     12.39%     50.96% |        1633     12.38%     63.34% |        1564     11.86%     75.20% |        1629     12.35%     87.55% |        1642     12.45%    100.00% (Unspecified)
system.caches.L1Cache_Controller.I.Ifetch::total        13190                       (Unspecified)
system.caches.L1Cache_Controller.I.Store |         135     13.06%     13.06% |         130     12.57%     25.63% |         127     12.28%     37.91% |         128     12.38%     50.29% |         134     12.96%     63.25% |         124     11.99%     75.24% |         129     12.48%     87.72% |         127     12.28%    100.00% (Unspecified)
system.caches.L1Cache_Controller.I.Store::total         1034                       (Unspecified)
system.caches.L1Cache_Controller.I.L1_Replacement |        3730      9.58%      9.58% |        4971     12.76%     22.34% |        4850     12.45%     34.80% |        4672     12.00%     46.79% |        4991     12.82%     59.61% |        5325     13.67%     73.28% |        5198     13.35%     86.63% |        5208     13.37%    100.00% (Unspecified)
system.caches.L1Cache_Controller.I.L1_Replacement::total        38945                       (Unspecified)
system.caches.L1Cache_Controller.S.Load  |     5614468     12.29%     12.29% |     5755601     12.60%     24.88% |     5953497     13.03%     37.91% |     5922085     12.96%     50.87% |     5759040     12.60%     63.48% |     5415937     11.85%     75.33% |     5577603     12.21%     87.54% |     5694339     12.46%    100.00% (Unspecified)
system.caches.L1Cache_Controller.S.Load::total     45692570                       (Unspecified)
system.caches.L1Cache_Controller.S.Ifetch |    10304738     12.55%     12.55% |    10283466     12.52%     25.07% |    10243719     12.47%     37.55% |    10263050     12.50%     50.04% |    10257839     12.49%     62.53% |    10306838     12.55%     75.09% |    10236765     12.47%     87.55% |    10222219     12.45%    100.00% (Unspecified)
system.caches.L1Cache_Controller.S.Ifetch::total     82118634                       (Unspecified)
system.caches.L1Cache_Controller.S.Store |        2211     17.00%     17.00% |        1863     14.32%     31.32% |        1711     13.15%     44.47% |        1577     12.12%     56.60% |        1522     11.70%     68.30% |        1281      9.85%     78.14% |        1428     10.98%     89.12% |        1415     10.88%    100.00% (Unspecified)
system.caches.L1Cache_Controller.S.Store::total        13008                       (Unspecified)
system.caches.L1Cache_Controller.S.Inv   |        5303     11.64%     11.64% |        5598     12.29%     23.94% |        5537     12.16%     36.09% |        5746     12.62%     48.71% |        5819     12.78%     61.49% |        5951     13.07%     74.55% |        5795     12.72%     87.28% |        5795     12.72%    100.00% (Unspecified)
system.caches.L1Cache_Controller.S.Inv::total        45544                       (Unspecified)
system.caches.L1Cache_Controller.S.L1_Replacement |       32428     12.54%     12.54% |       33054     12.78%     25.31% |       32704     12.64%     37.96% |       32564     12.59%     50.55% |       32398     12.52%     63.07% |       32634     12.62%     75.69% |       31556     12.20%     87.89% |       31332     12.11%    100.00% (Unspecified)
system.caches.L1Cache_Controller.S.L1_Replacement::total       258670                       (Unspecified)
system.caches.L1Cache_Controller.E.Load  |     2019624     13.18%     13.18% |     1893273     12.36%     25.54% |     2007810     13.10%     38.64% |     2015061     13.15%     51.79% |     1881615     12.28%     64.07% |     1822936     11.90%     75.97% |     1903766     12.42%     88.40% |     1778012     11.60%    100.00% (Unspecified)
system.caches.L1Cache_Controller.E.Load::total     15322097                       (Unspecified)
system.caches.L1Cache_Controller.E.Store |       31192     12.33%     12.33% |       31363     12.40%     24.73% |       31478     12.44%     37.17% |       31642     12.51%     49.68% |       31708     12.53%     62.21% |       32002     12.65%     74.86% |       31793     12.57%     87.43% |       31803     12.57%    100.00% (Unspecified)
system.caches.L1Cache_Controller.E.Store::total       252981                       (Unspecified)
system.caches.L1Cache_Controller.E.Inv   |        1265      6.13%      6.13% |        2814     13.64%     19.78% |        2691     13.05%     32.83% |        2507     12.16%     44.98% |        2650     12.85%     57.83% |        2862     13.88%     71.71% |        2872     13.93%     85.63% |        2963     14.37%    100.00% (Unspecified)
system.caches.L1Cache_Controller.E.Inv::total        20624                       (Unspecified)
system.caches.L1Cache_Controller.E.L1_Replacement |      194607     12.60%     12.60% |      194881     12.62%     25.22% |      193438     12.53%     37.75% |      193587     12.54%     50.29% |      192056     12.44%     62.73% |      193035     12.50%     75.23% |      190849     12.36%     87.59% |      191698     12.41%    100.00% (Unspecified)
system.caches.L1Cache_Controller.E.L1_Replacement::total      1544151                       (Unspecified)
system.caches.L1Cache_Controller.E.Fwd_GETX |           6     11.32%     11.32% |           7     13.21%     24.53% |           8     15.09%     39.62% |           7     13.21%     52.83% |           8     15.09%     67.92% |           1      1.89%     69.81% |           8     15.09%     84.91% |           8     15.09%    100.00% (Unspecified)
system.caches.L1Cache_Controller.E.Fwd_GETX::total           53                       (Unspecified)
system.caches.L1Cache_Controller.E.Fwd_GETS |        4364     12.30%     12.30% |        4484     12.64%     24.94% |        4492     12.66%     37.61% |        4521     12.74%     50.35% |        4407     12.42%     62.77% |        4483     12.64%     75.41% |        4371     12.32%     87.73% |        4351     12.27%    100.00% (Unspecified)
system.caches.L1Cache_Controller.E.Fwd_GETS::total        35473                       (Unspecified)
system.caches.L1Cache_Controller.M.Load  |     2750844     12.12%     12.12% |     2845881     12.54%     24.66% |     2734428     12.05%     36.70% |     2706690     11.92%     48.63% |     2860173     12.60%     61.23% |     2965802     13.07%     74.29% |     2898388     12.77%     87.06% |     2937422     12.94%    100.00% (Unspecified)
system.caches.L1Cache_Controller.M.Load::total     22699628                       (Unspecified)
system.caches.L1Cache_Controller.M.Store |      280931     12.31%     12.31% |      276954     12.13%     24.44% |      276574     12.12%     36.55% |      276504     12.11%     48.67% |      296393     12.98%     61.65% |      322963     14.15%     75.80% |      276234     12.10%     87.90% |      276216     12.10%    100.00% (Unspecified)
system.caches.L1Cache_Controller.M.Store::total      2282769                       (Unspecified)
system.caches.L1Cache_Controller.M.Inv   |         794     23.07%     23.07% |         434     12.61%     35.68% |         430     12.49%     48.17% |         330      9.59%     57.76% |         414     12.03%     69.79% |         341      9.91%     79.69% |         391     11.36%     91.05% |         308      8.95%    100.00% (Unspecified)
system.caches.L1Cache_Controller.M.Inv::total         3442                       (Unspecified)
system.caches.L1Cache_Controller.M.L1_Replacement |       39449     14.75%     14.75% |       32086     12.00%     26.75% |       32216     12.05%     38.80% |       32521     12.16%     50.96% |       32492     12.15%     63.11% |       33328     12.46%     75.57% |       32583     12.18%     87.76% |       32731     12.24%    100.00% (Unspecified)
system.caches.L1Cache_Controller.M.L1_Replacement::total       267406                       (Unspecified)
system.caches.L1Cache_Controller.M.Fwd_GETX |         125     12.14%     12.14% |         130     12.62%     24.76% |         131     12.72%     37.48% |         135     13.11%     50.58% |         129     12.52%     63.11% |         119     11.55%     74.66% |         132     12.82%     87.48% |         129     12.52%    100.00% (Unspecified)
system.caches.L1Cache_Controller.M.Fwd_GETX::total         1030                       (Unspecified)
system.caches.L1Cache_Controller.M.Fwd_GETS |        1760     22.18%     22.18% |        1240     15.63%     37.81% |        1074     13.54%     51.35% |         883     11.13%     62.48% |         839     10.57%     73.05% |         700      8.82%     81.88% |         753      9.49%     91.37% |         685      8.63%    100.00% (Unspecified)
system.caches.L1Cache_Controller.M.Fwd_GETS::total         7934                       (Unspecified)
system.caches.L1Cache_Controller.IS.Inv  |           0      0.00%      0.00% |           1      8.33%      8.33% |           7     58.33%     66.67% |           1      8.33%     75.00% |           1      8.33%     83.33% |           0      0.00%     83.33% |           1      8.33%     91.67% |           1      8.33%    100.00% (Unspecified)
system.caches.L1Cache_Controller.IS.Inv::total           12                       (Unspecified)
system.caches.L1Cache_Controller.IS.Data_Exclusive |      239104     12.73%     12.73% |      235991     12.57%     25.30% |      234489     12.49%     37.79% |      234726     12.50%     50.28% |      233252     12.42%     62.71% |      234796     12.50%     75.21% |      232326     12.37%     87.58% |      233233     12.42%    100.00% (Unspecified)
system.caches.L1Cache_Controller.IS.Data_Exclusive::total      1877917                       (Unspecified)
system.caches.L1Cache_Controller.IS.DataS_fromL1 |        5339     12.30%     12.30% |        5626     12.96%     25.26% |        5503     12.68%     37.94% |        5403     12.45%     50.39% |        5389     12.42%     62.80% |        5451     12.56%     75.36% |        5382     12.40%     87.76% |        5314     12.24%    100.00% (Unspecified)
system.caches.L1Cache_Controller.IS.DataS_fromL1::total        43407                       (Unspecified)
system.caches.L1Cache_Controller.IS.Data_all_Acks |       28689     13.35%     13.35% |       26897     12.52%     25.87% |       26682     12.42%     38.29% |       26783     12.47%     50.75% |       26847     12.49%     63.25% |       26996     12.56%     75.81% |       26024     12.11%     87.92% |       25946     12.08%    100.00% (Unspecified)
system.caches.L1Cache_Controller.IS.Data_all_Acks::total       214864                       (Unspecified)
system.caches.L1Cache_Controller.IM.Data |          40     85.11%     85.11% |           2      4.26%     89.36% |           0      0.00%     89.36% |           0      0.00%     89.36% |           1      2.13%     91.49% |           2      4.26%     95.74% |           2      4.26%    100.00% |           0      0.00%    100.00% (Unspecified)
system.caches.L1Cache_Controller.IM.Data::total           47                       (Unspecified)
system.caches.L1Cache_Controller.IM.Data_all_Acks |         904     14.59%     14.59% |         690     11.14%     25.73% |         690     11.14%     36.87% |         679     10.96%     47.83% |         667     10.77%     58.60% |        1231     19.87%     78.47% |         668     10.78%     89.25% |         666     10.75%    100.00% (Unspecified)
system.caches.L1Cache_Controller.IM.Data_all_Acks::total         6195                       (Unspecified)
system.caches.L1Cache_Controller.SM.Inv  |           0      0.00%      0.00% |           0      0.00%      0.00% |           1     25.00%     25.00% |           1     25.00%     50.00% |           0      0.00%     50.00% |           0      0.00%     50.00% |           1     25.00%     75.00% |           1     25.00%    100.00% (Unspecified)
system.caches.L1Cache_Controller.SM.Inv::total            4                       (Unspecified)
system.caches.L1Cache_Controller.SM.Ack  |        9787     21.04%     21.04% |        7085     15.23%     36.28% |        5839     12.55%     48.83% |        5269     11.33%     60.16% |        5140     11.05%     71.21% |        4265      9.17%     80.38% |        4597      9.88%     90.26% |        4529      9.74%    100.00% (Unspecified)
system.caches.L1Cache_Controller.SM.Ack::total        46511                       (Unspecified)
system.caches.L1Cache_Controller.SM.Ack_all |        2251     17.25%     17.25% |        1865     14.29%     31.54% |        1710     13.10%     44.64% |        1576     12.08%     56.72% |        1523     11.67%     68.39% |        1283      9.83%     78.22% |        1429     10.95%     89.17% |        1414     10.83%    100.00% (Unspecified)
system.caches.L1Cache_Controller.SM.Ack_all::total        13051                       (Unspecified)
system.caches.L1Cache_Controller.IS_I.Data_all_Acks |           0      0.00%      0.00% |           1      8.33%      8.33% |           7     58.33%     66.67% |           1      8.33%     75.00% |           1      8.33%     83.33% |           0      0.00%     83.33% |           1      8.33%     91.67% |           1      8.33%    100.00% (Unspecified)
system.caches.L1Cache_Controller.IS_I.Data_all_Acks::total           12                       (Unspecified)
system.caches.L1Cache_Controller.M_I.Ifetch |           0      0.00%      0.00% |           0      0.00%      0.00% |           0      0.00%      0.00% |           0      0.00%      0.00% |           0      0.00%      0.00% |           1    100.00%    100.00% |           0      0.00%    100.00% |           0      0.00%    100.00% (Unspecified)
system.caches.L1Cache_Controller.M_I.Ifetch::total            1                       (Unspecified)
system.caches.L1Cache_Controller.M_I.Inv |           0      0.00%      0.00% |           0      0.00%      0.00% |           0      0.00%      0.00% |           2     40.00%     40.00% |           0      0.00%     40.00% |           1     20.00%     60.00% |           1     20.00%     80.00% |           1     20.00%    100.00% (Unspecified)
system.caches.L1Cache_Controller.M_I.Inv::total            5                       (Unspecified)
system.caches.L1Cache_Controller.M_I.WB_Ack |      234056     12.92%     12.92% |      226967     12.53%     25.45% |      225654     12.46%     37.91% |      226106     12.48%     50.39% |      224548     12.40%     62.78% |      226362     12.50%     75.28% |      223431     12.33%     87.61% |      224428     12.39%    100.00% (Unspecified)
system.caches.L1Cache_Controller.M_I.WB_Ack::total      1811552                       (Unspecified)
system.caches.L1Cache_Controller.SINK_WB_ACK.WB_Ack |           0      0.00%      0.00% |           0      0.00%      0.00% |           0      0.00%      0.00% |           2     40.00%     40.00% |           0      0.00%     40.00% |           1     20.00%     60.00% |           1     20.00%     80.00% |           1     20.00%    100.00% (Unspecified)
system.caches.L1Cache_Controller.SINK_WB_ACK.WB_Ack::total            5                       (Unspecified)
system.caches.Directory_Controller.Fetch |        3682      0.20%      0.20% |     1821716     99.80%    100.00% (Unspecified)
system.caches.Directory_Controller.Fetch::total      1825398                       (Unspecified)
system.caches.Directory_Controller.Data  |         106      0.03%      0.03% |      338504     99.97%    100.00% (Unspecified)
system.caches.Directory_Controller.Data::total       338610                       (Unspecified)
system.caches.Directory_Controller.Memory_Data |        3682      0.20%      0.20% |     1821715     99.80%    100.00% (Unspecified)
system.caches.Directory_Controller.Memory_Data::total      1825397                       (Unspecified)
system.caches.Directory_Controller.Memory_Ack |         106      0.03%      0.03% |      338504     99.97%    100.00% (Unspecified)
system.caches.Directory_Controller.Memory_Ack::total       338610                       (Unspecified)
system.caches.Directory_Controller.CleanReplacement |        3483      0.23%      0.23% |     1483305     99.77%    100.00% (Unspecified)
system.caches.Directory_Controller.CleanReplacement::total      1486788                       (Unspecified)
system.caches.Directory_Controller.I.Fetch |        3682      0.20%      0.20% |     1821716     99.80%    100.00% (Unspecified)
system.caches.Directory_Controller.I.Fetch::total      1825398                       (Unspecified)
system.caches.Directory_Controller.M.Data |         106      0.03%      0.03% |      338504     99.97%    100.00% (Unspecified)
system.caches.Directory_Controller.M.Data::total       338610                       (Unspecified)
system.caches.Directory_Controller.M.CleanReplacement |        3483      0.23%      0.23% |     1483305     99.77%    100.00% (Unspecified)
system.caches.Directory_Controller.M.CleanReplacement::total      1486788                       (Unspecified)
system.caches.Directory_Controller.IM.Memory_Data |        3682      0.20%      0.20% |     1821715     99.80%    100.00% (Unspecified)
system.caches.Directory_Controller.IM.Memory_Data::total      1825397                       (Unspecified)
system.caches.Directory_Controller.MI.Memory_Ack |         106      0.03%      0.03% |      338504     99.97%    100.00% (Unspecified)
system.caches.Directory_Controller.MI.Memory_Ack::total       338610                       (Unspecified)
system.caches.L2Cache_Controller.L1_GET_INSTR |        3494     13.43%     13.43% |        3696     14.21%     27.64% |        2937     11.29%     38.93% |        2692     10.35%     49.28% |        3178     12.22%     61.50% |        3402     13.08%     74.57% |        3357     12.91%     87.48% |        3257     12.52%    100.00% (Unspecified)
system.caches.L2Cache_Controller.L1_GET_INSTR::total        26013                       (Unspecified)
system.caches.L2Cache_Controller.L1_GETS |      265814     12.59%     12.59% |      263654     12.49%     25.08% |      264410     12.53%     37.61% |      262407     12.43%     50.04% |      262602     12.44%     62.48% |      262807     12.45%     74.93% |      263072     12.46%     87.39% |      266141     12.61%    100.00% (Unspecified)
system.caches.L2Cache_Controller.L1_GETS::total      2110907                       (Unspecified)
system.caches.L2Cache_Controller.L1_GETX |         883     13.73%     13.73% |        1648     25.63%     39.37% |         213      3.31%     42.68% |         494      7.68%     50.37% |         637      9.91%     60.27% |        1036     16.11%     76.39% |         626      9.74%     86.13% |         892     13.87%    100.00% (Unspecified)
system.caches.L2Cache_Controller.L1_GETX::total         6429                       (Unspecified)
system.caches.L2Cache_Controller.L1_UPGRADE |        1606     12.33%     12.33% |        1580     12.13%     24.45% |        1548     11.88%     36.33% |        1566     12.02%     48.35% |        1633     12.53%     60.88% |        1561     11.98%     72.86% |        1702     13.06%     85.92% |        1834     14.08%    100.00% (Unspecified)
system.caches.L2Cache_Controller.L1_UPGRADE::total        13030                       (Unspecified)
system.caches.L2Cache_Controller.L1_PUTX |      226895     12.52%     12.52% |      226691     12.51%     25.04% |      226061     12.48%     37.52% |      226232     12.49%     50.01% |      226246     12.49%     62.49% |      226438     12.50%     74.99% |      226482     12.50%     87.50% |      226507     12.50%    100.00% (Unspecified)
system.caches.L2Cache_Controller.L1_PUTX::total      1811552                       (Unspecified)
system.caches.L2Cache_Controller.L1_PUTX_old |           0      0.00%      0.00% |           0      0.00%      0.00% |           2     20.00%     20.00% |           0      0.00%     20.00% |           8     80.00%    100.00% |           0      0.00%    100.00% |           0      0.00%    100.00% |           0      0.00%    100.00% (Unspecified)
system.caches.L2Cache_Controller.L1_PUTX_old::total           10                       (Unspecified)
system.caches.L2Cache_Controller.L2_Replacement |       42132     12.56%     12.56% |       41839     12.47%     25.03% |       41749     12.45%     37.48% |       41769     12.45%     49.93% |       41792     12.46%     62.39% |       42163     12.57%     74.95% |       41963     12.51%     87.46% |       42058     12.54%    100.00% (Unspecified)
system.caches.L2Cache_Controller.L2_Replacement::total       335465                       (Unspecified)
system.caches.L2Cache_Controller.L2_Replacement_clean |      186549     12.52%     12.52% |      186482     12.52%     25.04% |      186176     12.50%     37.53% |      186167     12.49%     50.03% |      186236     12.50%     62.53% |      185828     12.47%     75.00% |      186153     12.49%     87.49% |      186342     12.51%    100.00% (Unspecified)
system.caches.L2Cache_Controller.L2_Replacement_clean::total      1489933                       (Unspecified)
system.caches.L2Cache_Controller.Mem_Data |      228681     12.53%     12.53% |      228321     12.51%     25.04% |      227925     12.49%     37.52% |      227936     12.49%     50.01% |      228028     12.49%     62.50% |      227990     12.49%     74.99% |      228116     12.50%     87.49% |      228400     12.51%    100.00% (Unspecified)
system.caches.L2Cache_Controller.Mem_Data::total      1825397                       (Unspecified)
system.caches.L2Cache_Controller.Mem_Ack |      228681     12.53%     12.53% |      228321     12.51%     25.04% |      227925     12.49%     37.52% |      227936     12.49%     50.01% |      228028     12.49%     62.50% |      227991     12.49%     74.99% |      228116     12.50%     87.49% |      228400     12.51%    100.00% (Unspecified)
system.caches.L2Cache_Controller.Mem_Ack::total      1825398                       (Unspecified)
system.caches.L2Cache_Controller.WB_Data |        1498     13.17%     13.17% |        1411     12.40%     25.57% |        1230     10.81%     36.38% |        1412     12.41%     48.80% |        1384     12.17%     60.96% |        1328     11.67%     72.64% |        1461     12.84%     85.48% |        1652     14.52%    100.00% (Unspecified)
system.caches.L2Cache_Controller.WB_Data::total        11376                       (Unspecified)
system.caches.L2Cache_Controller.WB_Data_clean |        4584     12.92%     12.92% |        4353     12.27%     25.19% |        4260     12.01%     37.20% |        4220     11.89%     49.09% |        4461     12.57%     61.67% |        4342     12.24%     73.90% |        4352     12.27%     86.17% |        4906     13.83%    100.00% (Unspecified)
system.caches.L2Cache_Controller.WB_Data_clean::total        35478                       (Unspecified)
system.caches.L2Cache_Controller.Ack     |       14244     13.15%     13.15% |       13625     12.58%     25.73% |       13345     12.32%     38.05% |       12886     11.90%     49.94% |       13375     12.35%     62.29% |       13443     12.41%     74.70% |       13170     12.16%     86.85% |       14241     13.15%    100.00% (Unspecified)
system.caches.L2Cache_Controller.Ack::total       108329                       (Unspecified)
system.caches.L2Cache_Controller.Ack_all |        8286     13.09%     13.09% |        7963     12.58%     25.68% |        7709     12.18%     37.86% |        7725     12.21%     50.06% |        7874     12.44%     62.51% |        7734     12.22%     74.73% |        7642     12.08%     86.80% |        8353     13.20%    100.00% (Unspecified)
system.caches.L2Cache_Controller.Ack_all::total        63286                       (Unspecified)
system.caches.L2Cache_Controller.Unblock |        5562     12.81%     12.81% |        5318     12.25%     25.07% |        5144     11.85%     36.92% |        5170     11.91%     48.83% |        5464     12.59%     61.41% |        5284     12.17%     73.59% |        5379     12.39%     85.98% |        6086     14.02%    100.00% (Unspecified)
system.caches.L2Cache_Controller.Unblock::total        43407                       (Unspecified)
system.caches.L2Cache_Controller.Exclusive_Unblock |      237820     12.54%     12.54% |      238102     12.55%     25.09% |      236282     12.45%     37.54% |      236578     12.47%     50.01% |      236712     12.48%     62.49% |      236848     12.48%     74.97% |      236989     12.49%     87.46% |      237832     12.54%    100.00% (Unspecified)
system.caches.L2Cache_Controller.Exclusive_Unblock::total      1897163                       (Unspecified)
system.caches.L2Cache_Controller.NP.L1_GET_INSTR |         526     13.16%     13.16% |         533     13.33%     26.49% |         502     12.56%     39.04% |         454     11.36%     50.40% |         511     12.78%     63.18% |         499     12.48%     75.66% |         465     11.63%     87.29% |         508     12.71%    100.00% (Unspecified)
system.caches.L2Cache_Controller.NP.L1_GET_INSTR::total         3998                       (Unspecified)
system.caches.L2Cache_Controller.NP.L1_GETS |      227665     12.52%     12.52% |      227387     12.51%     25.03% |      227271     12.50%     37.52% |      227190     12.49%     50.02% |      227171     12.49%     62.51% |      226977     12.48%     74.99% |      227282     12.50%     87.49% |      227413     12.51%    100.00% (Unspecified)
system.caches.L2Cache_Controller.NP.L1_GETS::total      1818356                       (Unspecified)
system.caches.L2Cache_Controller.NP.L1_GETX |         490     16.10%     16.10% |         401     13.17%     29.27% |         152      4.99%     34.26% |         292      9.59%     43.86% |         346     11.37%     55.22% |         515     16.92%     72.14% |         369     12.12%     84.26% |         479     15.74%    100.00% (Unspecified)
system.caches.L2Cache_Controller.NP.L1_GETX::total         3044                       (Unspecified)
system.caches.L2Cache_Controller.NP.L1_PUTX_old |           0      0.00%      0.00% |           0      0.00%      0.00% |           1     20.00%     20.00% |           0      0.00%     20.00% |           4     80.00%    100.00% |           0      0.00%    100.00% |           0      0.00%    100.00% |           0      0.00%    100.00% (Unspecified)
system.caches.L2Cache_Controller.NP.L1_PUTX_old::total            5                       (Unspecified)
system.caches.L2Cache_Controller.SS.L1_GET_INSTR |        2512     13.83%     13.83% |        2693     14.82%     28.65% |        1998     11.00%     39.65% |        1777      9.78%     49.43% |        2074     11.42%     60.85% |        2388     13.15%     74.00% |        2441     13.44%     87.43% |        2283     12.57%    100.00% (Unspecified)
system.caches.L2Cache_Controller.SS.L1_GET_INSTR::total        18166                       (Unspecified)
system.caches.L2Cache_Controller.SS.L1_GETS |       24372     12.97%     12.97% |       23121     12.31%     25.28% |       24581     13.08%     38.36% |       22634     12.05%     50.41% |       22527     11.99%     62.40% |       23181     12.34%     74.73% |       22853     12.16%     86.90% |       24621     13.10%    100.00% (Unspecified)
system.caches.L2Cache_Controller.SS.L1_GETS::total       187890                       (Unspecified)
system.caches.L2Cache_Controller.SS.L1_GETX |          28     59.57%     59.57% |           0      0.00%     59.57% |           0      0.00%     59.57% |           0      0.00%     59.57% |           0      0.00%     59.57% |           0      0.00%     59.57% |          14     29.79%     89.36% |           5     10.64%    100.00% (Unspecified)
system.caches.L2Cache_Controller.SS.L1_GETX::total           47                       (Unspecified)
system.caches.L2Cache_Controller.SS.L1_UPGRADE |        1601     12.31%     12.31% |        1580     12.15%     24.46% |        1548     11.90%     36.37% |        1565     12.03%     48.40% |        1633     12.56%     60.96% |        1561     12.00%     72.96% |        1682     12.93%     85.90% |        1834     14.10%    100.00% (Unspecified)
system.caches.L2Cache_Controller.SS.L1_UPGRADE::total        13004                       (Unspecified)
system.caches.L2Cache_Controller.SS.L2_Replacement |        1026     12.07%     12.07% |        1077     12.67%     24.74% |        1039     12.22%     36.96% |        1063     12.51%     49.47% |        1098     12.92%     62.39% |        1080     12.71%     75.09% |        1060     12.47%     87.56% |        1057     12.44%    100.00% (Unspecified)
system.caches.L2Cache_Controller.SS.L2_Replacement::total         8500                       (Unspecified)
system.caches.L2Cache_Controller.SS.L2_Replacement_clean |        4512     13.21%     13.21% |        4219     12.35%     25.56% |        4142     12.12%     37.68% |        4037     11.82%     49.50% |        4301     12.59%     62.09% |        4193     12.27%     74.36% |        4158     12.17%     86.53% |        4600     13.47%    100.00% (Unspecified)
system.caches.L2Cache_Controller.SS.L2_Replacement_clean::total        34162                       (Unspecified)
system.caches.L2Cache_Controller.M.L1_GET_INSTR |           0      0.00%      0.00% |           2     22.22%     22.22% |           1     11.11%     33.33% |           0      0.00%     33.33% |           0      0.00%     33.33% |           1     11.11%     44.44% |           3     33.33%     77.78% |           2     22.22%    100.00% (Unspecified)
system.caches.L2Cache_Controller.M.L1_GET_INSTR::total            9                       (Unspecified)
system.caches.L2Cache_Controller.M.L1_GETS |        7767     12.98%     12.98% |        7642     12.78%     25.76% |        7285     12.18%     37.94% |        7349     12.29%     50.22% |        7295     12.20%     62.42% |        7300     12.20%     74.62% |        7412     12.39%     87.01% |        7768     12.99%    100.00% (Unspecified)
system.caches.L2Cache_Controller.M.L1_GETS::total        59818                       (Unspecified)
system.caches.L2Cache_Controller.M.L1_GETX |         319     15.43%     15.43% |         239     11.56%     26.98% |          56      2.71%     29.69% |         175      8.46%     38.15% |         269     13.01%     51.16% |         457     22.10%     73.26% |         236     11.41%     84.67% |         317     15.33%    100.00% (Unspecified)
system.caches.L2Cache_Controller.M.L1_GETX::total         2068                       (Unspecified)
system.caches.L2Cache_Controller.M.L2_Replacement |       41025     12.57%     12.57% |       40710     12.47%     25.03% |       40680     12.46%     37.49% |       40640     12.45%     49.94% |       40648     12.45%     62.39% |       41007     12.56%     74.95% |       40840     12.51%     87.46% |       40936     12.54%    100.00% (Unspecified)
system.caches.L2Cache_Controller.M.L2_Replacement::total       326486                       (Unspecified)
system.caches.L2Cache_Controller.M.L2_Replacement_clean |      178850     12.49%     12.49% |      179202     12.51%     25.00% |      179190     12.51%     37.51% |      179109     12.51%     50.02% |      179125     12.51%     62.53% |      178864     12.49%     75.01% |      179200     12.51%     87.53% |      178639     12.47%    100.00% (Unspecified)
system.caches.L2Cache_Controller.M.L2_Replacement_clean::total      1432179                       (Unspecified)
system.caches.L2Cache_Controller.MT.L1_GETS |        5562     12.81%     12.81% |        5318     12.25%     25.07% |        5144     11.85%     36.92% |        5170     11.91%     48.83% |        5464     12.59%     61.41% |        5284     12.17%     73.59% |        5379     12.39%     85.98% |        6086     14.02%    100.00% (Unspecified)
system.caches.L2Cache_Controller.MT.L1_GETS::total        43407                       (Unspecified)
system.caches.L2Cache_Controller.MT.L1_GETX |          27      2.49%      2.49% |         893     82.46%     84.95% |           5      0.46%     85.41% |          27      2.49%     87.90% |          20      1.85%     89.75% |          59      5.45%     95.20% |           7      0.65%     95.84% |          45      4.16%    100.00% (Unspecified)
system.caches.L2Cache_Controller.MT.L1_GETX::total         1083                       (Unspecified)
system.caches.L2Cache_Controller.MT.L1_PUTX |      226895     12.52%     12.52% |      226691     12.51%     25.04% |      226061     12.48%     37.52% |      226232     12.49%     50.01% |      226246     12.49%     62.49% |      226438     12.50%     74.99% |      226482     12.50%     87.50% |      226507     12.50%    100.00% (Unspecified)
system.caches.L2Cache_Controller.MT.L1_PUTX::total      1811552                       (Unspecified)
system.caches.L2Cache_Controller.MT.L2_Replacement |          81     16.91%     16.91% |          52     10.86%     27.77% |          30      6.26%     34.03% |          66     13.78%     47.81% |          46      9.60%     57.41% |          76     15.87%     73.28% |          63     13.15%     86.43% |          65     13.57%    100.00% (Unspecified)
system.caches.L2Cache_Controller.MT.L2_Replacement::total          479                       (Unspecified)
system.caches.L2Cache_Controller.MT.L2_Replacement_clean |        3187     13.51%     13.51% |        3061     12.97%     26.48% |        2844     12.05%     38.54% |        3021     12.81%     51.34% |        2810     11.91%     63.25% |        2771     11.75%     75.00% |        2795     11.85%     86.85% |        3103     13.15%    100.00% (Unspecified)
system.caches.L2Cache_Controller.MT.L2_Replacement_clean::total        23592                       (Unspecified)
system.caches.L2Cache_Controller.M_I.L1_GET_INSTR |           0      0.00%      0.00% |           0      0.00%      0.00% |           9     12.68%     12.68% |          11     15.49%     28.17% |          34     47.89%     76.06% |           0      0.00%     76.06% |           7      9.86%     85.92% |          10     14.08%    100.00% (Unspecified)
system.caches.L2Cache_Controller.M_I.L1_GET_INSTR::total           71                       (Unspecified)
system.caches.L2Cache_Controller.M_I.L1_GETS |          59     50.00%     50.00% |          14     11.86%     61.86% |           4      3.39%     65.25% |           4      3.39%     68.64% |           2      1.69%     70.34% |           0      0.00%     70.34% |           3      2.54%     72.88% |          32     27.12%    100.00% (Unspecified)
system.caches.L2Cache_Controller.M_I.L1_GETS::total          118                       (Unspecified)
system.caches.L2Cache_Controller.M_I.L1_GETX |           1     10.00%     10.00% |           2     20.00%     30.00% |           0      0.00%     30.00% |           0      0.00%     30.00% |           2     20.00%     50.00% |           5     50.00%    100.00% |           0      0.00%    100.00% |           0      0.00%    100.00% (Unspecified)
system.caches.L2Cache_Controller.M_I.L1_GETX::total           10                       (Unspecified)
system.caches.L2Cache_Controller.M_I.Mem_Ack |      228681     12.53%     12.53% |      228321     12.51%     25.04% |      227925     12.49%     37.52% |      227936     12.49%     50.01% |      228028     12.49%     62.50% |      227991     12.49%     74.99% |      228116     12.50%     87.49% |      228400     12.51%    100.00% (Unspecified)
system.caches.L2Cache_Controller.M_I.Mem_Ack::total      1825398                       (Unspecified)
system.caches.L2Cache_Controller.MT_I.WB_Data |          53     17.85%     17.85% |          26      8.75%     26.60% |           9      3.03%     29.63% |          41     13.80%     43.43% |          27      9.09%     52.53% |          56     18.86%     71.38% |          39     13.13%     84.51% |          46     15.49%    100.00% (Unspecified)
system.caches.L2Cache_Controller.MT_I.WB_Data::total          297                       (Unspecified)
system.caches.L2Cache_Controller.MT_I.Ack_all |          28     15.38%     15.38% |          26     14.29%     29.67% |          21     11.54%     41.21% |          25     13.74%     54.95% |          19     10.44%     65.38% |          20     10.99%     76.37% |          24     13.19%     89.56% |          19     10.44%    100.00% (Unspecified)
system.caches.L2Cache_Controller.MT_I.Ack_all::total          182                       (Unspecified)
system.caches.L2Cache_Controller.MCT_I.L1_PUTX_old |           0      0.00%      0.00% |           0      0.00%      0.00% |           1     20.00%     20.00% |           0      0.00%     20.00% |           4     80.00%    100.00% |           0      0.00%    100.00% |           0      0.00%    100.00% |           0      0.00%    100.00% (Unspecified)
system.caches.L2Cache_Controller.MCT_I.L1_PUTX_old::total            5                       (Unspecified)
system.caches.L2Cache_Controller.MCT_I.WB_Data |         467     14.85%     14.85% |         420     13.35%     28.20% |         336     10.68%     38.89% |         421     13.39%     52.27% |         350     11.13%     63.40% |         330     10.49%     73.90% |         395     12.56%     86.45% |         426     13.55%    100.00% (Unspecified)
system.caches.L2Cache_Controller.MCT_I.WB_Data::total         3145                       (Unspecified)
system.caches.L2Cache_Controller.MCT_I.WB_Data_clean |           0      0.00%      0.00% |           0      0.00%      0.00% |           1     20.00%     20.00% |           0      0.00%     20.00% |           4     80.00%    100.00% |           0      0.00%    100.00% |           0      0.00%    100.00% |           0      0.00%    100.00% (Unspecified)
system.caches.L2Cache_Controller.MCT_I.WB_Data_clean::total            5                       (Unspecified)
system.caches.L2Cache_Controller.MCT_I.Ack_all |        2720     13.31%     13.31% |        2641     12.92%     26.23% |        2507     12.26%     38.49% |        2600     12.72%     51.21% |        2456     12.01%     63.22% |        2441     11.94%     75.16% |        2400     11.74%     86.90% |        2677     13.10%    100.00% (Unspecified)
system.caches.L2Cache_Controller.MCT_I.Ack_all::total        20442                       (Unspecified)
system.caches.L2Cache_Controller.I_I.Ack |       11152     13.31%     13.31% |       10486     12.51%     25.82% |       10378     12.38%     38.21% |        9843     11.75%     49.95% |       10360     12.36%     62.31% |       10359     12.36%     74.68% |       10073     12.02%     86.70% |       11149     13.30%    100.00% (Unspecified)
system.caches.L2Cache_Controller.I_I.Ack::total        83800                       (Unspecified)
system.caches.L2Cache_Controller.I_I.Ack_all |        4512     13.21%     13.21% |        4219     12.35%     25.56% |        4142     12.12%     37.68% |        4037     11.82%     49.50% |        4301     12.59%     62.09% |        4193     12.27%     74.36% |        4158     12.17%     86.53% |        4600     13.47%    100.00% (Unspecified)
system.caches.L2Cache_Controller.I_I.Ack_all::total        34162                       (Unspecified)
system.caches.L2Cache_Controller.S_I.Ack |        3092     12.61%     12.61% |        3139     12.80%     25.40% |        2967     12.10%     37.50% |        3043     12.41%     49.90% |        3015     12.29%     62.20% |        3084     12.57%     74.77% |        3097     12.63%     87.39% |        3092     12.61%    100.00% (Unspecified)
system.caches.L2Cache_Controller.S_I.Ack::total        24529                       (Unspecified)
system.caches.L2Cache_Controller.S_I.Ack_all |        1026     12.07%     12.07% |        1077     12.67%     24.74% |        1039     12.22%     36.96% |        1063     12.51%     49.47% |        1098     12.92%     62.39% |        1080     12.71%     75.09% |        1060     12.47%     87.56% |        1057     12.44%    100.00% (Unspecified)
system.caches.L2Cache_Controller.S_I.Ack_all::total         8500                       (Unspecified)
system.caches.L2Cache_Controller.ISS.L1_GETS |          77     30.08%     30.08% |          40     15.62%     45.70% |          35     13.67%     59.38% |          20      7.81%     67.19% |          22      8.59%     75.78% |          20      7.81%     83.59% |          13      5.08%     88.67% |          29     11.33%    100.00% (Unspecified)
system.caches.L2Cache_Controller.ISS.L1_GETS::total          256                       (Unspecified)
system.caches.L2Cache_Controller.ISS.Mem_Data |      227588     12.52%     12.52% |      227347     12.50%     25.02% |      227236     12.50%     37.52% |      227170     12.49%     50.02% |      227149     12.49%     62.51% |      226956     12.48%     74.99% |      227269     12.50%     87.49% |      227384     12.51%    100.00% (Unspecified)
system.caches.L2Cache_Controller.ISS.Mem_Data::total      1818099                       (Unspecified)
system.caches.L2Cache_Controller.IS.L1_GET_INSTR |         456     12.10%     12.10% |         468     12.42%     24.52% |         427     11.33%     35.85% |         450     11.94%     47.78% |         559     14.83%     62.62% |         514     13.64%     76.25% |         441     11.70%     87.95% |         454     12.05%    100.00% (Unspecified)
system.caches.L2Cache_Controller.IS.L1_GET_INSTR::total         3769                       (Unspecified)
system.caches.L2Cache_Controller.IS.L1_GETS |         174     32.71%     32.71% |          97     18.23%     50.94% |          38      7.14%     58.08% |          26      4.89%     62.97% |          42      7.89%     70.86% |          32      6.02%     76.88% |          26      4.89%     81.77% |          97     18.23%    100.00% (Unspecified)
system.caches.L2Cache_Controller.IS.L1_GETS::total          532                       (Unspecified)
system.caches.L2Cache_Controller.IS.Mem_Data |         603     14.17%     14.17% |         573     13.47%     27.64% |         537     12.62%     40.27% |         474     11.14%     51.41% |         533     12.53%     63.94% |         519     12.20%     76.14% |         478     11.24%     87.38% |         537     12.62%    100.00% (Unspecified)
system.caches.L2Cache_Controller.IS.Mem_Data::total         4254                       (Unspecified)
system.caches.L2Cache_Controller.IM.L1_GETX |           3     13.64%     13.64% |          19     86.36%    100.00% |           0      0.00%    100.00% |           0      0.00%    100.00% |           0      0.00%    100.00% |           0      0.00%    100.00% |           0      0.00%    100.00% |           0      0.00%    100.00% (Unspecified)
system.caches.L2Cache_Controller.IM.L1_GETX::total           22                       (Unspecified)
system.caches.L2Cache_Controller.IM.Mem_Data |         490     16.10%     16.10% |         401     13.17%     29.27% |         152      4.99%     34.26% |         292      9.59%     43.86% |         346     11.37%     55.22% |         515     16.92%     72.14% |         369     12.12%     84.26% |         479     15.74%    100.00% (Unspecified)
system.caches.L2Cache_Controller.IM.Mem_Data::total         3044                       (Unspecified)
system.caches.L2Cache_Controller.SS_MB.L1_GETS |          39     25.00%     25.00% |           0      0.00%     25.00% |           0      0.00%     25.00% |           0      0.00%     25.00% |          28     17.95%     42.95% |           0      0.00%     42.95% |          69     44.23%     87.18% |          20     12.82%    100.00% (Unspecified)
system.caches.L2Cache_Controller.SS_MB.L1_GETS::total          156                       (Unspecified)
system.caches.L2Cache_Controller.SS_MB.L1_GETX |           2     28.57%     28.57% |           0      0.00%     28.57% |           0      0.00%     28.57% |           0      0.00%     28.57% |           0      0.00%     28.57% |           0      0.00%     28.57% |           0      0.00%     28.57% |           5     71.43%    100.00% (Unspecified)
system.caches.L2Cache_Controller.SS_MB.L1_GETX::total            7                       (Unspecified)
system.caches.L2Cache_Controller.SS_MB.L1_UPGRADE |           4    100.00%    100.00% |           0      0.00%    100.00% |           0      0.00%    100.00% |           0      0.00%    100.00% |           0      0.00%    100.00% |           0      0.00%    100.00% |           0      0.00%    100.00% |           0      0.00%    100.00% (Unspecified)
system.caches.L2Cache_Controller.SS_MB.L1_UPGRADE::total            4                       (Unspecified)
system.caches.L2Cache_Controller.SS_MB.Exclusive_Unblock |        1629     12.48%     12.48% |        1580     12.11%     24.59% |        1548     11.86%     36.45% |        1565     11.99%     48.44% |        1633     12.51%     60.95% |        1561     11.96%     72.91% |        1696     13.00%     85.91% |        1839     14.09%    100.00% (Unspecified)
system.caches.L2Cache_Controller.SS_MB.Exclusive_Unblock::total        13051                       (Unspecified)
system.caches.L2Cache_Controller.MT_MB.L1_GETS |          22     21.57%     21.57% |          17     16.67%     38.24% |          28     27.45%     65.69% |           7      6.86%     72.55% |           1      0.98%     73.53% |           1      0.98%     74.51% |           5      4.90%     79.41% |          21     20.59%    100.00% (Unspecified)
system.caches.L2Cache_Controller.MT_MB.L1_GETS::total          102                       (Unspecified)
system.caches.L2Cache_Controller.MT_MB.L1_GETX |          13      8.78%      8.78% |          94     63.51%     72.30% |           0      0.00%     72.30% |           0      0.00%     72.30% |           0      0.00%     72.30% |           0      0.00%     72.30% |           0      0.00%     72.30% |          41     27.70%    100.00% (Unspecified)
system.caches.L2Cache_Controller.MT_MB.L1_GETX::total          148                       (Unspecified)
system.caches.L2Cache_Controller.MT_MB.Exclusive_Unblock |      236191     12.54%     12.54% |      236522     12.55%     25.09% |      234734     12.46%     37.55% |      235013     12.47%     50.02% |      235079     12.48%     62.50% |      235287     12.49%     74.99% |      235293     12.49%     87.47% |      235993     12.53%    100.00% (Unspecified)
system.caches.L2Cache_Controller.MT_MB.Exclusive_Unblock::total      1884112                       (Unspecified)
system.caches.L2Cache_Controller.MT_IIB.L1_GETS |          70     27.13%     27.13% |          15      5.81%     32.95% |          23      8.91%     41.86% |           6      2.33%     44.19% |          48     18.60%     62.79% |          12      4.65%     67.44% |          30     11.63%     79.07% |          54     20.93%    100.00% (Unspecified)
system.caches.L2Cache_Controller.MT_IIB.L1_GETS::total          258                       (Unspecified)
system.caches.L2Cache_Controller.MT_IIB.WB_Data |         978     12.36%     12.36% |         965     12.20%     24.56% |         885     11.19%     35.75% |         940     11.88%     47.63% |         998     12.62%     60.25% |         942     11.91%     72.15% |        1023     12.93%     85.08% |        1180     14.92%    100.00% (Unspecified)
system.caches.L2Cache_Controller.MT_IIB.WB_Data::total         7911                       (Unspecified)
system.caches.L2Cache_Controller.MT_IIB.WB_Data_clean |        4584     12.92%     12.92% |        4353     12.27%     25.19% |        4259     12.01%     37.20% |        4220     11.90%     49.10% |        4457     12.56%     61.66% |        4342     12.24%     73.90% |        4352     12.27%     86.17% |        4906     13.83%    100.00% (Unspecified)
system.caches.L2Cache_Controller.MT_IIB.WB_Data_clean::total        35473                       (Unspecified)
system.caches.L2Cache_Controller.MT_IIB.Unblock |           0      0.00%      0.00% |           0      0.00%      0.00% |           0      0.00%      0.00% |          10     43.48%     43.48% |           9     39.13%     82.61% |           0      0.00%     82.61% |           4     17.39%    100.00% |           0      0.00%    100.00% (Unspecified)
system.caches.L2Cache_Controller.MT_IIB.Unblock::total           23                       (Unspecified)
system.caches.L2Cache_Controller.MT_IB.WB_Data |           0      0.00%      0.00% |           0      0.00%      0.00% |           0      0.00%      0.00% |          10     43.48%     43.48% |           9     39.13%     82.61% |           0      0.00%     82.61% |           4     17.39%    100.00% |           0      0.00%    100.00% (Unspecified)
system.caches.L2Cache_Controller.MT_IB.WB_Data::total           23                       (Unspecified)
system.caches.L2Cache_Controller.MT_SB.L1_GETS |           7     50.00%     50.00% |           3     21.43%     71.43% |           1      7.14%     78.57% |           1      7.14%     85.71% |           2     14.29%    100.00% |           0      0.00%    100.00% |           0      0.00%    100.00% |           0      0.00%    100.00% (Unspecified)
system.caches.L2Cache_Controller.MT_SB.L1_GETS::total           14                       (Unspecified)
system.caches.L2Cache_Controller.MT_SB.L1_UPGRADE |           1      4.55%      4.55% |           0      0.00%      4.55% |           0      0.00%      4.55% |           1      4.55%      9.09% |           0      0.00%      9.09% |           0      0.00%      9.09% |          20     90.91%    100.00% |           0      0.00%    100.00% (Unspecified)
system.caches.L2Cache_Controller.MT_SB.L1_UPGRADE::total           22                       (Unspecified)
system.caches.L2Cache_Controller.MT_SB.Unblock |        5562     12.82%     12.82% |        5318     12.26%     25.08% |        5144     11.86%     36.94% |        5160     11.89%     48.83% |        5455     12.57%     61.40% |        5284     12.18%     73.58% |        5375     12.39%     85.97% |        6086     14.03%    100.00% (Unspecified)
system.caches.L2Cache_Controller.MT_SB.Unblock::total        43384                       (Unspecified)
system.caches.RequestType.LD.latency_hist_seqr::bucket_size          512                       (Unspecified)
system.caches.RequestType.LD.latency_hist_seqr::max_bucket         5119                       (Unspecified)
system.caches.RequestType.LD.latency_hist_seqr::samples     85824553                       (Unspecified)
system.caches.RequestType.LD.latency_hist_seqr::mean    10.333892                       (Unspecified)
system.caches.RequestType.LD.latency_hist_seqr::gmean     1.147025                       (Unspecified)
system.caches.RequestType.LD.latency_hist_seqr::stdev    73.758232                       (Unspecified)
system.caches.RequestType.LD.latency_hist_seqr |    85459857     99.58%     99.58% |      330167      0.38%     99.96% |        7959      0.01%     99.97% |        8860      0.01%     99.98% |       15299      0.02%    100.00% |        2203      0.00%    100.00% |         194      0.00%    100.00% |          13      0.00%    100.00% |           1      0.00%    100.00% |           0      0.00%    100.00% (Unspecified)
system.caches.RequestType.LD.latency_hist_seqr::total     85824553                       (Unspecified)
system.caches.RequestType.LD.hit_latency_hist_seqr::bucket_size            1                       (Unspecified)
system.caches.RequestType.LD.hit_latency_hist_seqr::max_bucket            9                       (Unspecified)
system.caches.RequestType.LD.hit_latency_hist_seqr::samples     83714295                       (Unspecified)
system.caches.RequestType.LD.hit_latency_hist_seqr::mean     1.001819                       (Unspecified)
system.caches.RequestType.LD.hit_latency_hist_seqr::gmean     1.001262                       (Unspecified)
system.caches.RequestType.LD.hit_latency_hist_seqr::stdev     0.042613                       (Unspecified)
system.caches.RequestType.LD.hit_latency_hist_seqr |           0      0.00%      0.00% |    83562003     99.82%     99.82% |      152292      0.18%    100.00% |           0      0.00%    100.00% |           0      0.00%    100.00% |           0      0.00%    100.00% |           0      0.00%    100.00% |           0      0.00%    100.00% |           0      0.00%    100.00% |           0      0.00%    100.00% (Unspecified)
system.caches.RequestType.LD.hit_latency_hist_seqr::total     83714295                       (Unspecified)
system.caches.RequestType.LD.miss_latency_hist_seqr::bucket_size          512                       (Unspecified)
system.caches.RequestType.LD.miss_latency_hist_seqr::max_bucket         5119                       (Unspecified)
system.caches.RequestType.LD.miss_latency_hist_seqr::samples      2110258                       (Unspecified)
system.caches.RequestType.LD.miss_latency_hist_seqr::mean   380.538801                       (Unspecified)
system.caches.RequestType.LD.miss_latency_hist_seqr::gmean   251.836764                       (Unspecified)
system.caches.RequestType.LD.miss_latency_hist_seqr::stdev   284.166313                       (Unspecified)
system.caches.RequestType.LD.miss_latency_hist_seqr |     1745562     82.72%     82.72% |      330167     15.65%     98.36% |        7959      0.38%     98.74% |        8860      0.42%     99.16% |       15299      0.72%     99.89% |        2203      0.10%     99.99% |         194      0.01%    100.00% |          13      0.00%    100.00% |           1      0.00%    100.00% |           0      0.00%    100.00% (Unspecified)
system.caches.RequestType.LD.miss_latency_hist_seqr::total      2110258                       (Unspecified)
system.caches.RequestType.ST.latency_hist_seqr::bucket_size          512                       (Unspecified)
system.caches.RequestType.ST.latency_hist_seqr::max_bucket         5119                       (Unspecified)
system.caches.RequestType.ST.latency_hist_seqr::samples      2532918                       (Unspecified)
system.caches.RequestType.ST.latency_hist_seqr::mean     1.928491                       (Unspecified)
system.caches.RequestType.ST.latency_hist_seqr::gmean     1.480687                       (Unspecified)
system.caches.RequestType.ST.latency_hist_seqr::stdev    13.169453                       (Unspecified)
system.caches.RequestType.ST.latency_hist_seqr |     2532545     99.99%     99.99% |         329      0.01%    100.00% |          19      0.00%    100.00% |          10      0.00%    100.00% |          13      0.00%    100.00% |           2      0.00%    100.00% |           0      0.00%    100.00% |           0      0.00%    100.00% |           0      0.00%    100.00% |           0      0.00%    100.00% (Unspecified)
system.caches.RequestType.ST.latency_hist_seqr::total      2532918                       (Unspecified)
system.caches.RequestType.ST.hit_latency_hist_seqr::bucket_size          512                       (Unspecified)
system.caches.RequestType.ST.hit_latency_hist_seqr::max_bucket         5119                       (Unspecified)
system.caches.RequestType.ST.hit_latency_hist_seqr::samples      2517147                       (Unspecified)
system.caches.RequestType.ST.hit_latency_hist_seqr::mean     1.548587                       (Unspecified)
system.caches.RequestType.ST.hit_latency_hist_seqr::gmean     1.453954                       (Unspecified)
system.caches.RequestType.ST.hit_latency_hist_seqr::stdev     3.024869                       (Unspecified)
system.caches.RequestType.ST.hit_latency_hist_seqr |     2517133    100.00%    100.00% |          11      0.00%    100.00% |           1      0.00%    100.00% |           0      0.00%    100.00% |           1      0.00%    100.00% |           1      0.00%    100.00% |           0      0.00%    100.00% |           0      0.00%    100.00% |           0      0.00%    100.00% |           0      0.00%    100.00% (Unspecified)
system.caches.RequestType.ST.hit_latency_hist_seqr::total      2517147                       (Unspecified)
system.caches.RequestType.ST.miss_latency_hist_seqr::bucket_size          512                       (Unspecified)
system.caches.RequestType.ST.miss_latency_hist_seqr::max_bucket         5119                       (Unspecified)
system.caches.RequestType.ST.miss_latency_hist_seqr::samples        15771                       (Unspecified)
system.caches.RequestType.ST.miss_latency_hist_seqr::mean    62.563503                       (Unspecified)
system.caches.RequestType.ST.miss_latency_hist_seqr::gmean    27.124032                       (Unspecified)
system.caches.RequestType.ST.miss_latency_hist_seqr::stdev   150.652078                       (Unspecified)
system.caches.RequestType.ST.miss_latency_hist_seqr |       15412     97.72%     97.72% |         318      2.02%     99.74% |          18      0.11%     99.85% |          10      0.06%     99.92% |          12      0.08%     99.99% |           1      0.01%    100.00% |           0      0.00%    100.00% |           0      0.00%    100.00% |           0      0.00%    100.00% |           0      0.00%    100.00% (Unspecified)
system.caches.RequestType.ST.miss_latency_hist_seqr::total        15771                       (Unspecified)
system.caches.RequestType.IFETCH.latency_hist_seqr::bucket_size          512                       (Unspecified)
system.caches.RequestType.IFETCH.latency_hist_seqr::max_bucket         5119                       (Unspecified)
system.caches.RequestType.IFETCH.latency_hist_seqr::samples     82144576                       (Unspecified)
system.caches.RequestType.IFETCH.latency_hist_seqr::mean     1.029185                       (Unspecified)
system.caches.RequestType.IFETCH.latency_hist_seqr::gmean     1.001098                       (Unspecified)
system.caches.RequestType.IFETCH.latency_hist_seqr::stdev     3.111332                       (Unspecified)
system.caches.RequestType.IFETCH.latency_hist_seqr |    82144270    100.00%    100.00% |         253      0.00%    100.00% |          16      0.00%    100.00% |          28      0.00%    100.00% |           8      0.00%    100.00% |           1      0.00%    100.00% |           0      0.00%    100.00% |           0      0.00%    100.00% |           0      0.00%    100.00% |           0      0.00%    100.00% (Unspecified)
system.caches.RequestType.IFETCH.latency_hist_seqr::total     82144576                       (Unspecified)
system.caches.RequestType.IFETCH.hit_latency_hist_seqr::bucket_size            1                       (Unspecified)
system.caches.RequestType.IFETCH.hit_latency_hist_seqr::max_bucket            9                       (Unspecified)
system.caches.RequestType.IFETCH.hit_latency_hist_seqr::samples     82118634                       (Unspecified)
system.caches.RequestType.IFETCH.hit_latency_hist_seqr::mean     1.000000                       (Unspecified)
system.caches.RequestType.IFETCH.hit_latency_hist_seqr::gmean     1.000000                       (Unspecified)
system.caches.RequestType.IFETCH.hit_latency_hist_seqr::stdev     0.000221                       (Unspecified)
system.caches.RequestType.IFETCH.hit_latency_hist_seqr |           0      0.00%      0.00% |    82118630    100.00%    100.00% |           4      0.00%    100.00% |           0      0.00%    100.00% |           0      0.00%    100.00% |           0      0.00%    100.00% |           0      0.00%    100.00% |           0      0.00%    100.00% |           0      0.00%    100.00% |           0      0.00%    100.00% (Unspecified)
system.caches.RequestType.IFETCH.hit_latency_hist_seqr::total     82118634                       (Unspecified)
system.caches.RequestType.IFETCH.miss_latency_hist_seqr::bucket_size          512                       (Unspecified)
system.caches.RequestType.IFETCH.miss_latency_hist_seqr::max_bucket         5119                       (Unspecified)
system.caches.RequestType.IFETCH.miss_latency_hist_seqr::samples        25942                       (Unspecified)
system.caches.RequestType.IFETCH.miss_latency_hist_seqr::mean    93.411880                       (Unspecified)
system.caches.RequestType.IFETCH.miss_latency_hist_seqr::gmean    32.246209                       (Unspecified)
system.caches.RequestType.IFETCH.miss_latency_hist_seqr::stdev   148.715309                       (Unspecified)
system.caches.RequestType.IFETCH.miss_latency_hist_seqr |       25636     98.82%     98.82% |         253      0.98%     99.80% |          16      0.06%     99.86% |          28      0.11%     99.97% |           8      0.03%    100.00% |           1      0.00%    100.00% |           0      0.00%    100.00% |           0      0.00%    100.00% |           0      0.00%    100.00% |           0      0.00%    100.00% (Unspecified)
system.caches.RequestType.IFETCH.miss_latency_hist_seqr::total        25942                       (Unspecified)
system.caches.RequestType.RMW_Read.latency_hist_seqr::bucket_size          512                       (Unspecified)
system.caches.RequestType.RMW_Read.latency_hist_seqr::max_bucket         5119                       (Unspecified)
system.caches.RequestType.RMW_Read.latency_hist_seqr::samples        10742                       (Unspecified)
[...]
system.o3Cpu7.iew.predictedTakenIncorrect       346206                       # Number of branches that were predicted taken incorrectly (Count)
system.o3Cpu7.iew.predictedNotTakenIncorrect       339151                       # Number of branches that were predicted not taken incorrectly (Count)
system.o3Cpu7.iew.branchMispredicts            685357                       # Number of branch mispredicts detected at execute (Count)
system.o3Cpu7.iew.instsToCommit              72693098                       # Cumulative count of insts sent to commit (Count)
system.o3Cpu7.iew.writebackCount             72137260                       # Cumulative count of insts written-back (Count)
system.o3Cpu7.iew.producerInst               60033726                       # Number of instructions producing a value (Count)
system.o3Cpu7.iew.consumerInst               85814181                       # Number of instructions consuming a value (Count)
system.o3Cpu7.iew.wbRate                     0.756751                       # Insts written-back per cycle ((Count/Cycle))
system.o3Cpu7.iew.wbFanout                   0.699578                       # Average fanout of values written-back ((Count/Count))
system.o3Cpu7.interrupts.clk_domain.clock         3200                       # Clock period in ticks (Tick)
system.o3Cpu7.lsq0.forwLoads                   158740                       # Number of loads that had data forwarded from stores (Count)
system.o3Cpu7.lsq0.squashedLoads              7658622                       # Number of loads squashed (Count)
system.o3Cpu7.lsq0.ignoredResponses                18                       # Number of memory responses ignored because the instruction is squashed (Count)
system.o3Cpu7.lsq0.memOrderViolation              309                       # Number of memory ordering violations (Count)
system.o3Cpu7.lsq0.squashedStores              615625                       # Number of stores squashed (Count)
system.o3Cpu7.lsq0.rescheduledLoads                17                       # Number of loads that were rescheduled (Count)
system.o3Cpu7.lsq0.blockedByCache                 480                       # Number of times an access to memory failed due to the cache being blocked (Count)
system.o3Cpu7.lsq0.loadToUse::samples         7360853                       # Distribution of cycle latency between the first time a load is issued and its completion (Unspecified)
system.o3Cpu7.lsq0.loadToUse::mean          37.129060                       # Distribution of cycle latency between the first time a load is issued and its completion (Unspecified)
system.o3Cpu7.lsq0.loadToUse::stdev        132.576403                       # Distribution of cycle latency between the first time a load is issued and its completion (Unspecified)
system.o3Cpu7.lsq0.loadToUse::0-9             6708416     91.14%     91.14% # Distribution of cycle latency between the first time a load is issued and its completion (Unspecified)
system.o3Cpu7.lsq0.loadToUse::10-19             22721      0.31%     91.45% # Distribution of cycle latency between the first time a load is issued and its completion (Unspecified)
system.o3Cpu7.lsq0.loadToUse::20-29             13277      0.18%     91.63% # Distribution of cycle latency between the first time a load is issued and its completion (Unspecified)
system.o3Cpu7.lsq0.loadToUse::30-39              1923      0.03%     91.65% # Distribution of cycle latency between the first time a load is issued and its completion (Unspecified)
system.o3Cpu7.lsq0.loadToUse::40-49              1304      0.02%     91.67% # Distribution of cycle latency between the first time a load is issued and its completion (Unspecified)
system.o3Cpu7.lsq0.loadToUse::50-59              1083      0.01%     91.68% # Distribution of cycle latency between the first time a load is issued and its completion (Unspecified)
system.o3Cpu7.lsq0.loadToUse::60-69               945      0.01%     91.70% # Distribution of cycle latency between the first time a load is issued and its completion (Unspecified)
system.o3Cpu7.lsq0.loadToUse::70-79               963      0.01%     91.71% # Distribution of cycle latency between the first time a load is issued and its completion (Unspecified)
system.o3Cpu7.lsq0.loadToUse::80-89               877      0.01%     91.72% # Distribution of cycle latency between the first time a load is issued and its completion (Unspecified)
system.o3Cpu7.lsq0.loadToUse::90-99               740      0.01%     91.73% # Distribution of cycle latency between the first time a load is issued and its completion (Unspecified)
system.o3Cpu7.lsq0.loadToUse::100-109             760      0.01%     91.74% # Distribution of cycle latency between the first time a load is issued and its completion (Unspecified)
system.o3Cpu7.lsq0.loadToUse::110-119             825      0.01%     91.75% # Distribution of cycle latency between the first time a load is issued and its completion (Unspecified)
system.o3Cpu7.lsq0.loadToUse::120-129             772      0.01%     91.76% # Distribution of cycle latency between the first time a load is issued and its completion (Unspecified)
system.o3Cpu7.lsq0.loadToUse::130-139             862      0.01%     91.78% # Distribution of cycle latency between the first time a load is issued and its completion (Unspecified)
system.o3Cpu7.lsq0.loadToUse::140-149            1135      0.02%     91.79% # Distribution of cycle latency between the first time a load is issued and its completion (Unspecified)
system.o3Cpu7.lsq0.loadToUse::150-159            1088      0.01%     91.81% # Distribution of cycle latency between the first time a load is issued and its completion (Unspecified)
system.o3Cpu7.lsq0.loadToUse::160-169           11285      0.15%     91.96% # Distribution of cycle latency between the first time a load is issued and its completion (Unspecified)
system.o3Cpu7.lsq0.loadToUse::170-179           11933      0.16%     92.12% # Distribution of cycle latency between the first time a load is issued and its completion (Unspecified)
system.o3Cpu7.lsq0.loadToUse::180-189           12921      0.18%     92.30% # Distribution of cycle latency between the first time a load is issued and its completion (Unspecified)
system.o3Cpu7.lsq0.loadToUse::190-199           15219      0.21%     92.50% # Distribution of cycle latency between the first time a load is issued and its completion (Unspecified)
system.o3Cpu7.lsq0.loadToUse::200-209           14321      0.19%     92.70% # Distribution of cycle latency between the first time a load is issued and its completion (Unspecified)
system.o3Cpu7.lsq0.loadToUse::210-219           20736      0.28%     92.98% # Distribution of cycle latency between the first time a load is issued and its completion (Unspecified)
system.o3Cpu7.lsq0.loadToUse::220-229            7128      0.10%     93.08% # Distribution of cycle latency between the first time a load is issued and its completion (Unspecified)
system.o3Cpu7.lsq0.loadToUse::230-239            6506      0.09%     93.17% # Distribution of cycle latency between the first time a load is issued and its completion (Unspecified)
system.o3Cpu7.lsq0.loadToUse::240-249            5858      0.08%     93.24% # Distribution of cycle latency between the first time a load is issued and its completion (Unspecified)
system.o3Cpu7.lsq0.loadToUse::250-259            5829      0.08%     93.32% # Distribution of cycle latency between the first time a load is issued and its completion (Unspecified)
system.o3Cpu7.lsq0.loadToUse::260-269            5742      0.08%     93.40% # Distribution of cycle latency between the first time a load is issued and its completion (Unspecified)
system.o3Cpu7.lsq0.loadToUse::270-279            5704      0.08%     93.48% # Distribution of cycle latency between the first time a load is issued and its completion (Unspecified)
system.o3Cpu7.lsq0.loadToUse::280-289            6461      0.09%     93.57% # Distribution of cycle latency between the first time a load is issued and its completion (Unspecified)
system.o3Cpu7.lsq0.loadToUse::290-299            4975      0.07%     93.63% # Distribution of cycle latency between the first time a load is issued and its completion (Unspecified)
system.o3Cpu7.lsq0.loadToUse::overflows        468544      6.37%    100.00% # Distribution of cycle latency between the first time a load is issued and its completion (Unspecified)
system.o3Cpu7.lsq0.loadToUse::min_value             2                       # Distribution of cycle latency between the first time a load is issued and its completion (Unspecified)
system.o3Cpu7.lsq0.loadToUse::max_value          3395                       # Distribution of cycle latency between the first time a load is issued and its completion (Unspecified)
system.o3Cpu7.lsq0.loadToUse::total           7360853                       # Distribution of cycle latency between the first time a load is issued and its completion (Unspecified)
system.o3Cpu7.mmu.dtb.rdAccesses             12278121                       # TLB accesses on read requests (Count)
system.o3Cpu7.mmu.dtb.wrAccesses               495241                       # TLB accesses on write requests (Count)
system.o3Cpu7.mmu.dtb.rdMisses                  22792                       # TLB misses on read requests (Count)
system.o3Cpu7.mmu.dtb.wrMisses                    748                       # TLB misses on write requests (Count)
system.o3Cpu7.mmu.dtb.walker.power_state.pwrStateResidencyTicks::UNDEFINED  20312395399                       # Cumulative time (in ticks) in various power states (Tick)
system.o3Cpu7.mmu.itb.rdAccesses                    0                       # TLB accesses on read requests (Count)
system.o3Cpu7.mmu.itb.wrAccesses             10226033                       # TLB accesses on write requests (Count)
system.o3Cpu7.mmu.itb.rdMisses                      0                       # TLB misses on read requests (Count)
system.o3Cpu7.mmu.itb.wrMisses                    156                       # TLB misses on write requests (Count)
system.o3Cpu7.mmu.itb.walker.power_state.pwrStateResidencyTicks::UNDEFINED  20312395399                       # Cumulative time (in ticks) in various power states (Tick)
system.o3Cpu7.power_state.numTransitions            4                       # Number of power state transitions (Count)
system.o3Cpu7.power_state.ticksClkGated::samples            2                       # Distribution of time spent in the clock gated state (Tick)
system.o3Cpu7.power_state.ticksClkGated::mean    116002800                       # Distribution of time spent in the clock gated state (Tick)
system.o3Cpu7.power_state.ticksClkGated::stdev 119558463.091159                       # Distribution of time spent in the clock gated state (Tick)
system.o3Cpu7.power_state.ticksClkGated::1000-5e+10            2    100.00%    100.00% # Distribution of time spent in the clock gated state (Tick)
system.o3Cpu7.power_state.ticksClkGated::min_value     31462200                       # Distribution of time spent in the clock gated state (Tick)
system.o3Cpu7.power_state.ticksClkGated::max_value    200543400                       # Distribution of time spent in the clock gated state (Tick)
system.o3Cpu7.power_state.ticksClkGated::total            2                       # Distribution of time spent in the clock gated state (Tick)
system.o3Cpu7.power_state.pwrStateResidencyTicks::ON  15267240800                       # Cumulative time (in ticks) in various power states (Tick)
system.o3Cpu7.power_state.pwrStateResidencyTicks::CLK_GATED    232005600                       # Cumulative time (in ticks) in various power states (Tick)
system.o3Cpu7.power_state.pwrStateResidencyTicks::OFF   4813148999                       # Cumulative time (in ticks) in various power states (Tick)
system.o3Cpu7.rename.squashCycles              623808                       # Number of cycles rename is squashing (Cycle)
system.o3Cpu7.rename.idleCycles               7677718                       # Number of cycles rename is idle (Cycle)
system.o3Cpu7.rename.blockCycles             63256259                       # Number of cycles rename is blocking (Cycle)
system.o3Cpu7.rename.serializeStallCycles       101606                       # count of cycles rename stalled for serializing inst (Cycle)
system.o3Cpu7.rename.runCycles               14096705                       # Number of cycles rename is running (Cycle)
system.o3Cpu7.rename.unblockCycles            9477781                       # Number of cycles rename is unblocking (Cycle)
system.o3Cpu7.rename.renamedInsts            92211721                       # Number of instructions processed by rename (Count)
system.o3Cpu7.rename.ROBFullEvents             378194                       # Number of times rename has blocked due to ROB full (Count)
system.o3Cpu7.rename.IQFullEvents             4184332                       # Number of times rename has blocked due to IQ full (Count)
system.o3Cpu7.rename.LQFullEvents             7502509                       # Number of times rename has blocked due to LQ full (Count)
system.o3Cpu7.rename.SQFullEvents               13701                       # Number of times rename has blocked due to SQ full (Count)
system.o3Cpu7.rename.renamedOperands        169531089                       # Number of destination operands rename has renamed (Count)
system.o3Cpu7.rename.lookups                321569742                       # Number of register rename lookups that rename has made (Count)
system.o3Cpu7.rename.intLookups             119376590                       # Number of integer rename lookups (Count)
system.o3Cpu7.rename.fpLookups                    573                       # Number of floating rename lookups (Count)
system.o3Cpu7.rename.committedMaps           84262817                       # Number of HB maps that are committed (Count)
system.o3Cpu7.rename.undoneMaps              85268176                       # Number of HB maps that are undone due to squashing (Count)
system.o3Cpu7.rename.serializing                 1346                       # count of serializing insts renamed (Count)
system.o3Cpu7.rename.tempSerializing             1393                       # count of temporary serializing insts renamed (Count)
system.o3Cpu7.rename.skidInsts                6667108                       # count of insts added to the skid buffer (Count)
system.o3Cpu7.rob.reads                     175721916                       # The number of ROB reads (Count)
system.o3Cpu7.rob.writes                    182710465                       # The number of ROB writes (Count)
system.o3Cpu7.thread_0.numInsts              28812280                       # Number of Instructions committed (Count)
system.o3Cpu7.thread_0.numOps                45974910                       # Number of Ops committed (Count)
system.o3Cpu7.thread_0.numMemRefs                   0                       # Number of Memory References (Count)
system.pc.bad_addr.power_state.pwrStateResidencyTicks::UNDEFINED  20312395399                       # Cumulative time (in ticks) in various power states (Tick)
system.pc.com_1.power_state.pwrStateResidencyTicks::UNDEFINED  20312395399                       # Cumulative time (in ticks) in various power states (Tick)
system.pc.default_bus.power_state.pwrStateResidencyTicks::UNDEFINED  20312395399                       # Cumulative time (in ticks) in various power states (Tick)
system.pc.empty_isa.power_state.pwrStateResidencyTicks::UNDEFINED  20312395399                       # Cumulative time (in ticks) in various power states (Tick)
system.pc.fake_com_2.power_state.pwrStateResidencyTicks::UNDEFINED  20312395399                       # Cumulative time (in ticks) in various power states (Tick)
system.pc.fake_com_3.power_state.pwrStateResidencyTicks::UNDEFINED  20312395399                       # Cumulative time (in ticks) in various power states (Tick)
system.pc.fake_com_4.power_state.pwrStateResidencyTicks::UNDEFINED  20312395399                       # Cumulative time (in ticks) in various power states (Tick)
system.pc.fake_floppy.power_state.pwrStateResidencyTicks::UNDEFINED  20312395399                       # Cumulative time (in ticks) in various power states (Tick)
system.pc.pci_host.power_state.pwrStateResidencyTicks::UNDEFINED  20312395399                       # Cumulative time (in ticks) in various power states (Tick)
system.pc.south_bridge.cmos.power_state.pwrStateResidencyTicks::UNDEFINED  20312395399                       # Cumulative time (in ticks) in various power states (Tick)
system.pc.south_bridge.dma1.power_state.pwrStateResidencyTicks::UNDEFINED  20312395399                       # Cumulative time (in ticks) in various power states (Tick)
system.pc.south_bridge.ide.disks0.IdeDisk.dmaReadFullPages            0                       # Number of full page size DMA reads (not PRD). (Count)
system.pc.south_bridge.ide.disks0.IdeDisk.dmaReadBytes            0                       # Number of bytes transfered via DMA reads (not PRD). (Byte)
system.pc.south_bridge.ide.disks0.IdeDisk.dmaReadTxs            0                       # Number of DMA read transactions (not PRD). (Count)
system.pc.south_bridge.ide.disks0.IdeDisk.dmaWriteFullPages            0                       # Number of full page size DMA writes. (Count)
system.pc.south_bridge.ide.disks0.IdeDisk.dmaWriteBytes            0                       # Number of bytes transfered via DMA writes. (Byte)
system.pc.south_bridge.ide.disks0.IdeDisk.dmaWriteTxs            0                       # Number of DMA write transactions. (Count)
system.pc.south_bridge.ide.disks1.IdeDisk.dmaReadFullPages            0                       # Number of full page size DMA reads (not PRD). (Count)
system.pc.south_bridge.ide.disks1.IdeDisk.dmaReadBytes            0                       # Number of bytes transfered via DMA reads (not PRD). (Byte)
system.pc.south_bridge.ide.disks1.IdeDisk.dmaReadTxs            0                       # Number of DMA read transactions (not PRD). (Count)
system.pc.south_bridge.ide.disks1.IdeDisk.dmaWriteFullPages            0                       # Number of full page size DMA writes. (Count)
system.pc.south_bridge.ide.disks1.IdeDisk.dmaWriteBytes            0                       # Number of bytes transfered via DMA writes. (Byte)
system.pc.south_bridge.ide.disks1.IdeDisk.dmaWriteTxs            0                       # Number of DMA write transactions. (Count)
system.pc.south_bridge.ide.power_state.pwrStateResidencyTicks::UNDEFINED  20312395399                       # Cumulative time (in ticks) in various power states (Tick)
system.pc.south_bridge.io_apic.power_state.pwrStateResidencyTicks::UNDEFINED  20312395399                       # Cumulative time (in ticks) in various power states (Tick)
system.pc.south_bridge.keyboard.power_state.pwrStateResidencyTicks::UNDEFINED  20312395399                       # Cumulative time (in ticks) in various power states (Tick)
system.pc.south_bridge.pic1.power_state.pwrStateResidencyTicks::UNDEFINED  20312395399                       # Cumulative time (in ticks) in various power states (Tick)
system.pc.south_bridge.pic2.power_state.pwrStateResidencyTicks::UNDEFINED  20312395399                       # Cumulative time (in ticks) in various power states (Tick)
system.pc.south_bridge.pit.power_state.pwrStateResidencyTicks::UNDEFINED  20312395399                       # Cumulative time (in ticks) in various power states (Tick)
system.pc.south_bridge.speaker.power_state.pwrStateResidencyTicks::UNDEFINED  20312395399                       # Cumulative time (in ticks) in various power states (Tick)
system.workload.inst.arm                            0                       # number of arm instructions executed (Count)
system.workload.inst.quiesce                        0                       # number of quiesce instructions executed (Count)

---------- End Simulation Statistics   ----------
