
---------- Begin Simulation Statistics ----------
simSeconds                                   0.033101                       # Number of seconds simulated (Second)
simTicks                                  33100613100                       # Number of ticks simulated (Tick)
finalTick                                263969596362400                       # Number of ticks from beginning of simulation (restored from checkpoints and never reset) (Tick)
simFreq                                  1000000000000                       # The number of ticks per simulated second ((Tick/Second))
hostSeconds                                   8801.88                       # Real time elapsed on the host (Second)
hostTickRate                                  3760631                       # The number of ticks simulated per host second (ticks/s) ((Tick/Second))
hostMemory                                   19913168                       # Number of bytes of host memory used (Byte)
simInsts                                    141728731                       # Number of instructions simulated (Count)
simOps                                      277458397                       # Number of ops (including micro ops) simulated (Count)
hostInstRate                                    16102                       # Simulator instruction rate (inst/s) ((Count/Second))
hostOpRate                                      31523                       # Simulator op (including micro ops) rate (op/s) ((Count/Second))
system.caches.delayHistogram::bucket_size           16                       # delay histogram for all message (Unspecified)
system.caches.delayHistogram::max_bucket          159                       # delay histogram for all message (Unspecified)
system.caches.delayHistogram::samples       112963989                       # delay histogram for all message (Unspecified)
system.caches.delayHistogram::mean           4.497515                       # delay histogram for all message (Unspecified)
system.caches.delayHistogram::stdev         13.446847                       # delay histogram for all message (Unspecified)
system.caches.delayHistogram             |   102099294     90.38%     90.38% |     4745487      4.20%     94.58% |     2761486      2.44%     97.03% |     1668747      1.48%     98.50% |     1011896      0.90%     99.40% |      498740      0.44%     99.84% |      153584      0.14%     99.98% |       23304      0.02%    100.00% |        1436      0.00%    100.00% |          15      0.00%    100.00% # delay histogram for all message (Unspecified)
system.caches.delayHistogram::total         112963989                       # delay histogram for all message (Unspecified)
system.caches.m_outstandReqHistSeqr::bucket_size            2                       (Unspecified)
system.caches.m_outstandReqHistSeqr::max_bucket           19                       (Unspecified)
system.caches.m_outstandReqHistSeqr::samples     62139811                       (Unspecified)
system.caches.m_outstandReqHistSeqr::mean     6.302328                       (Unspecified)
system.caches.m_outstandReqHistSeqr::gmean     5.156633                       (Unspecified)
system.caches.m_outstandReqHistSeqr::stdev     3.641504                       (Unspecified)
system.caches.m_outstandReqHistSeqr      |     4081031      6.57%      6.57% |    11348067     18.26%     24.83% |    14084867     22.67%     47.50% |    12243764     19.70%     67.20% |     8580551     13.81%     81.01% |     5455231      8.78%     89.79% |     3281727      5.28%     95.07% |     1989599      3.20%     98.27% |     1074974      1.73%    100.00% |           0      0.00%    100.00% (Unspecified)
system.caches.m_outstandReqHistSeqr::total     62139811                       (Unspecified)
system.caches.m_latencyHistSeqr::bucket_size          512                       (Unspecified)
system.caches.m_latencyHistSeqr::max_bucket         5119                       (Unspecified)
system.caches.m_latencyHistSeqr::samples     62174338                       (Unspecified)
system.caches.m_latencyHistSeqr::mean       84.270493                       (Unspecified)
system.caches.m_latencyHistSeqr::gmean       5.265926                       (Unspecified)
system.caches.m_latencyHistSeqr::stdev     226.369245                       (Unspecified)
system.caches.m_latencyHistSeqr          |    57960735     93.22%     93.22% |     3873827      6.23%     99.45% |      202518      0.33%     99.78% |       12107      0.02%     99.80% |       78740      0.13%     99.93% |       43436      0.07%    100.00% |        2772      0.00%    100.00% |         185      0.00%    100.00% |          16      0.00%    100.00% |           2      0.00%    100.00% (Unspecified)
system.caches.m_latencyHistSeqr::total       62174338                       (Unspecified)
system.caches.m_hitLatencyHistSeqr::bucket_size          512                       (Unspecified)
system.caches.m_hitLatencyHistSeqr::max_bucket         5119                       (Unspecified)
system.caches.m_hitLatencyHistSeqr::samples     37574094                       (Unspecified)
system.caches.m_hitLatencyHistSeqr::mean     1.093446                       (Unspecified)
system.caches.m_hitLatencyHistSeqr::gmean     1.047264                       (Unspecified)
system.caches.m_hitLatencyHistSeqr::stdev     3.567881                       (Unspecified)
system.caches.m_hitLatencyHistSeqr       |    37573842    100.00%    100.00% |         122      0.00%    100.00% |          54      0.00%    100.00% |          67      0.00%    100.00% |           5      0.00%    100.00% |           1      0.00%    100.00% |           3      0.00%    100.00% |           0      0.00%    100.00% |           0      0.00%    100.00% |           0      0.00%    100.00% (Unspecified)
system.caches.m_hitLatencyHistSeqr::total     37574094                       (Unspecified)
system.caches.m_missLatencyHistSeqr::bucket_size          512                       (Unspecified)
system.caches.m_missLatencyHistSeqr::max_bucket         5119                       (Unspecified)
system.caches.m_missLatencyHistSeqr::samples     24600244                       (Unspecified)
system.caches.m_missLatencyHistSeqr::mean   211.314037                       (Unspecified)
system.caches.m_missLatencyHistSeqr::gmean    62.060106                       (Unspecified)
system.caches.m_missLatencyHistSeqr::stdev   320.600021                       (Unspecified)
system.caches.m_missLatencyHistSeqr      |    20386893     82.87%     82.87% |     3873705     15.75%     98.62% |      202464      0.82%     99.44% |       12040      0.05%     99.49% |       78735      0.32%     99.81% |       43435      0.18%     99.99% |        2769      0.01%    100.00% |         185      0.00%    100.00% |          16      0.00%    100.00% |           2      0.00%    100.00% (Unspecified)
system.caches.m_missLatencyHistSeqr::total     24600244                       (Unspecified)
system.caches.delayVCHist.vnet_0::bucket_size            8                       # delay histogram for vnet_0 (Unspecified)
system.caches.delayVCHist.vnet_0::max_bucket           79                       # delay histogram for vnet_0 (Unspecified)
system.caches.delayVCHist.vnet_0::samples     46857651                       # delay histogram for vnet_0 (Unspecified)
system.caches.delayVCHist.vnet_0::mean       0.283455                       # delay histogram for vnet_0 (Unspecified)
system.caches.delayVCHist.vnet_0::stdev      1.374798                       # delay histogram for vnet_0 (Unspecified)
system.caches.delayVCHist.vnet_0         |    46103034     98.39%     98.39% |      727590      1.55%     99.94% |       24892      0.05%    100.00% |        1885      0.00%    100.00% |         175      0.00%    100.00% |          55      0.00%    100.00% |           6      0.00%    100.00% |           4      0.00%    100.00% |           9      0.00%    100.00% |           1      0.00%    100.00% # delay histogram for vnet_0 (Unspecified)
system.caches.delayVCHist.vnet_0::total      46857651                       # delay histogram for vnet_0 (Unspecified)
system.caches.delayVCHist.vnet_1::bucket_size           16                       # delay histogram for vnet_1 (Unspecified)
system.caches.delayVCHist.vnet_1::max_bucket          159                       # delay histogram for vnet_1 (Unspecified)
system.caches.delayVCHist.vnet_1::samples     58035140                       # delay histogram for vnet_1 (Unspecified)
system.caches.delayVCHist.vnet_1::mean       8.525069                       # delay histogram for vnet_1 (Unspecified)
system.caches.delayVCHist.vnet_1::stdev     17.806218                       # delay histogram for vnet_1 (Unspecified)
system.caches.delayVCHist.vnet_1         |    47197472     81.33%     81.33% |     4718710      8.13%     89.46% |     2761256      4.76%     94.21% |     1668737      2.88%     97.09% |     1011886      1.74%     98.83% |      498740      0.86%     99.69% |      153584      0.26%     99.96% |       23304      0.04%    100.00% |        1436      0.00%    100.00% |          15      0.00%    100.00% # delay histogram for vnet_1 (Unspecified)
system.caches.delayVCHist.vnet_1::total      58035140                       # delay histogram for vnet_1 (Unspecified)
system.caches.delayVCHist.vnet_2::bucket_size            1                       # delay histogram for vnet_2 (Unspecified)
system.caches.delayVCHist.vnet_2::max_bucket            9                       # delay histogram for vnet_2 (Unspecified)
system.caches.delayVCHist.vnet_2::samples      8071198                       # delay histogram for vnet_2 (Unspecified)
system.caches.delayVCHist.vnet_2::mean       0.002668                       # delay histogram for vnet_2 (Unspecified)
system.caches.delayVCHist.vnet_2::stdev      0.073091                       # delay histogram for vnet_2 (Unspecified)
system.caches.delayVCHist.vnet_2         |     8060443     99.87%     99.87% |           0      0.00%     99.87% |       10742      0.13%    100.00% |           0      0.00%    100.00% |          13      0.00%    100.00% |           0      0.00%    100.00% |           0      0.00%    100.00% |           0      0.00%    100.00% |           0      0.00%    100.00% |           0      0.00%    100.00% # delay histogram for vnet_2 (Unspecified)
system.caches.delayVCHist.vnet_2::total       8071198                       # delay histogram for vnet_2 (Unspecified)
system.caches.L1Cache_Controller.Load    |     6950389     12.36%     12.36% |     7041928     12.52%     24.88% |     7047629     12.53%     37.42% |     7071358     12.58%     49.99% |     7039913     12.52%     62.51% |     6997702     12.44%     74.96% |     7000532     12.45%     87.41% |     7082213     12.59%    100.00% (Unspecified)
system.caches.L1Cache_Controller.Load::total     56231664                       (Unspecified)
system.caches.L1Cache_Controller.Ifetch  |      585276     12.02%     12.02% |      617642     12.68%     24.70% |      629841     12.94%     37.64% |      608538     12.50%     50.14% |      591618     12.15%     62.29% |      597818     12.28%     74.56% |      608292     12.49%     87.06% |      630210     12.94%    100.00% (Unspecified)
system.caches.L1Cache_Controller.Ifetch::total      4869235                       (Unspecified)
system.caches.L1Cache_Controller.Store   |      134886     12.56%     12.56% |      136174     12.68%     25.25% |      137521     12.81%     38.06% |      134556     12.53%     50.59% |      129561     12.07%     62.66% |      130710     12.18%     74.84% |      133183     12.41%     87.24% |      136954     12.76%    100.00% (Unspecified)
system.caches.L1Cache_Controller.Store::total      1073545                       (Unspecified)
system.caches.L1Cache_Controller.Inv     |      806082     12.68%     12.68% |      791097     12.45%     25.13% |      789729     12.43%     37.56% |      792879     12.48%     50.04% |      794221     12.50%     62.54% |      793653     12.49%     75.03% |      796271     12.53%     87.56% |      790770     12.44%    100.00% (Unspecified)
system.caches.L1Cache_Controller.Inv::total      6354702                       (Unspecified)
system.caches.L1Cache_Controller.L1_Replacement |     3070485     12.53%     12.53% |     3032364     12.38%     24.91% |     3042709     12.42%     37.33% |     3064724     12.51%     49.84% |     3077836     12.56%     62.41% |     3080047     12.57%     74.98% |     3067019     12.52%     87.50% |     3062168     12.50%    100.00% (Unspecified)
system.caches.L1Cache_Controller.L1_Replacement::total     24497352                       (Unspecified)
system.caches.L1Cache_Controller.Fwd_GETX |        1510     11.92%     11.92% |        1621     12.80%     24.73% |        1639     12.94%     37.67% |        1598     12.62%     50.29% |        1535     12.12%     62.41% |        1550     12.24%     74.65% |        1576     12.45%     87.10% |        1634     12.90%    100.00% (Unspecified)
system.caches.L1Cache_Controller.Fwd_GETX::total        12663                       (Unspecified)
system.caches.L1Cache_Controller.Fwd_GETS |      214076     12.56%     12.56% |      212321     12.46%     25.03% |      212291     12.46%     37.49% |      213913     12.55%     50.04% |      213085     12.51%     62.55% |      212533     12.47%     75.02% |      213090     12.51%     87.53% |      212524     12.47%    100.00% (Unspecified)
system.caches.L1Cache_Controller.Fwd_GETS::total      1703833                       (Unspecified)
system.caches.L1Cache_Controller.Data    |          35    100.00%    100.00% |           0      0.00%    100.00% |           0      0.00%    100.00% |           0      0.00%    100.00% |           0      0.00%    100.00% |           0      0.00%    100.00% |           0      0.00%    100.00% |           0      0.00%    100.00% (Unspecified)
system.caches.L1Cache_Controller.Data::total           35                       (Unspecified)
system.caches.L1Cache_Controller.Data_Exclusive |     1405403     12.60%     12.60% |     1382211     12.39%     24.99% |     1384523     12.41%     37.39% |     1393143     12.49%     49.88% |     1399193     12.54%     62.42% |     1400165     12.55%     74.97% |     1404218     12.59%     87.56% |     1388186     12.44%    100.00% (Unspecified)
system.caches.L1Cache_Controller.Data_Exclusive::total     11157042                       (Unspecified)
system.caches.L1Cache_Controller.DataS_fromL1 |      215325     12.64%     12.64% |      212082     12.45%     25.09% |      211369     12.41%     37.49% |      211965     12.44%     49.93% |      213690     12.54%     62.47% |      213843     12.55%     75.02% |      213337     12.52%     87.54% |      212222     12.46%    100.00% (Unspecified)
system.caches.L1Cache_Controller.DataS_fromL1::total      1703833                       (Unspecified)
system.caches.L1Cache_Controller.Data_all_Acks |     1461113     12.46%     12.46% |     1449274     12.36%     24.82% |     1457981     12.43%     37.26% |     1470561     12.54%     49.80% |     1475860     12.59%     62.39% |     1476820     12.60%     74.98% |     1460502     12.46%     87.44% |     1472996     12.56%    100.00% (Unspecified)
system.caches.L1Cache_Controller.Data_all_Acks::total     11725107                       (Unspecified)
system.caches.L1Cache_Controller.Ack     |        2264     15.47%     15.47% |        1769     12.08%     27.55% |        1812     12.38%     39.93% |        1780     12.16%     52.09% |        1705     11.65%     63.73% |        1715     11.72%     75.45% |        1772     12.10%     87.55% |        1822     12.45%    100.00% (Unspecified)
system.caches.L1Cache_Controller.Ack::total        14639                       (Unspecified)
system.caches.L1Cache_Controller.Ack_all |        1887     13.23%     13.23% |        1769     12.40%     25.63% |        1812     12.71%     38.34% |        1780     12.48%     50.82% |        1705     11.95%     62.78% |        1715     12.02%     74.80% |        1772     12.42%     87.22% |        1822     12.78%    100.00% (Unspecified)
system.caches.L1Cache_Controller.Ack_all::total        14262                       (Unspecified)
system.caches.L1Cache_Controller.WB_Ack  |     1184479     12.65%     12.65% |     1157386     12.36%     25.02% |     1159890     12.39%     37.41% |     1166870     12.47%     49.88% |     1174100     12.54%     62.42% |     1175443     12.56%     74.98% |     1178964     12.60%     87.57% |     1163423     12.43%    100.00% (Unspecified)
system.caches.L1Cache_Controller.WB_Ack::total      9360555                       (Unspecified)
system.caches.L1Cache_Controller.NP.Load |     3067724     12.53%     12.53% |     3030786     12.38%     24.91% |     3041032     12.42%     37.33% |     3062963     12.51%     49.84% |     3076192     12.56%     62.41% |     3078322     12.57%     74.98% |     3065350     12.52%     87.50% |     3060568     12.50%    100.00% (Unspecified)
system.caches.L1Cache_Controller.NP.Load::total     24482937                       (Unspecified)
system.caches.L1Cache_Controller.NP.Ifetch |        1403     20.32%     20.32% |         723     10.47%     30.80% |         834     12.08%     42.88% |         827     11.98%     54.86% |         728     10.55%     65.41% |         824     11.94%     77.34% |         832     12.05%     89.40% |         732     10.60%    100.00% (Unspecified)
system.caches.L1Cache_Controller.NP.Ifetch::total         6903                       (Unspecified)
system.caches.L1Cache_Controller.NP.Store |        1543     17.43%     17.43% |        1023     11.55%     28.98% |        1014     11.45%     40.43% |        1101     12.44%     52.87% |        1081     12.21%     65.08% |        1064     12.02%     77.10% |         991     11.19%     88.29% |        1037     11.71%    100.00% (Unspecified)
system.caches.L1Cache_Controller.NP.Store::total         8854                       (Unspecified)
system.caches.L1Cache_Controller.NP.Inv  |      767144     12.69%     12.69% |      751728     12.44%     25.13% |      750593     12.42%     37.54% |      754155     12.48%     50.02% |      756047     12.51%     62.53% |      755434     12.50%     75.02% |      757623     12.53%     87.56% |      752136     12.44%    100.00% (Unspecified)
system.caches.L1Cache_Controller.NP.Inv::total      6044860                       (Unspecified)
system.caches.L1Cache_Controller.I.Load  |        3276     11.57%     11.57% |        3656     12.92%     24.49% |        3671     12.97%     37.46% |        3538     12.50%     49.96% |        3488     12.32%     62.29% |        3405     12.03%     74.32% |        3588     12.68%     86.99% |        3681     13.01%    100.00% (Unspecified)
system.caches.L1Cache_Controller.I.Load::total        28303                       (Unspecified)
system.caches.L1Cache_Controller.I.Ifetch |        6404     13.86%     13.86% |        5728     12.40%     26.26% |        5628     12.18%     38.45% |        5657     12.25%     50.69% |        5692     12.32%     63.01% |        5653     12.24%     75.25% |        5676     12.29%     87.54% |        5756     12.46%    100.00% (Unspecified)
system.caches.L1Cache_Controller.I.Ifetch::total        46194                       (Unspecified)
system.caches.L1Cache_Controller.I.Store |        1528     11.90%     11.90% |        1652     12.87%     24.77% |        1696     13.21%     37.99% |        1588     12.37%     50.36% |        1562     12.17%     62.53% |        1557     12.13%     74.66% |        1616     12.59%     87.25% |        1637     12.75%    100.00% (Unspecified)
system.caches.L1Cache_Controller.I.Store::total        12836                       (Unspecified)
system.caches.L1Cache_Controller.I.L1_Replacement |       28983     12.43%     12.43% |       29701     12.74%     25.17% |       29512     12.66%     37.83% |       29296     12.57%     50.39% |       28720     12.32%     62.71% |       28897     12.39%     75.11% |       29097     12.48%     87.59% |       28941     12.41%    100.00% (Unspecified)
system.caches.L1Cache_Controller.I.L1_Replacement::total       233147                       (Unspecified)
system.caches.L1Cache_Controller.S.Load  |     2219793     12.13%     12.13% |     2326658     12.72%     24.85% |     2312968     12.64%     37.50% |     2325695     12.71%     50.21% |     2292647     12.53%     62.74% |     2252567     12.31%     75.05% |     2251985     12.31%     87.36% |     2311720     12.64%    100.00% (Unspecified)
system.caches.L1Cache_Controller.S.Load::total     18294033                       (Unspecified)
system.caches.L1Cache_Controller.S.Ifetch |      577469     11.99%     11.99% |      611191     12.69%     24.68% |      623379     12.94%     37.62% |      602054     12.50%     50.13% |      585198     12.15%     62.28% |      591341     12.28%     74.55% |      601784     12.50%     87.05% |      623722     12.95%    100.00% (Unspecified)
system.caches.L1Cache_Controller.S.Ifetch::total      4816138                       (Unspecified)
system.caches.L1Cache_Controller.S.Store |        1852     12.99%     12.99% |        1771     12.43%     25.42% |        1813     12.72%     38.14% |        1780     12.49%     50.63% |        1710     12.00%     62.63% |        1721     12.07%     74.70% |        1779     12.48%     87.18% |        1827     12.82%    100.00% (Unspecified)
system.caches.L1Cache_Controller.S.Store::total        14253                       (Unspecified)
system.caches.L1Cache_Controller.S.Inv   |       23812     12.69%     12.69% |       23819     12.69%     25.38% |       23599     12.58%     37.96% |       23387     12.46%     50.43% |       23112     12.32%     62.74% |       23061     12.29%     75.03% |       23378     12.46%     87.49% |       23471     12.51%    100.00% (Unspecified)
system.caches.L1Cache_Controller.S.Inv::total       187639                       (Unspecified)
system.caches.L1Cache_Controller.S.L1_Replacement |     1857021     12.46%     12.46% |     1845275     12.38%     24.84% |     1853306     12.44%     37.28% |     1868556     12.54%     49.81% |     1875015     12.58%     62.40% |     1875707     12.59%     74.98% |     1858958     12.47%     87.45% |     1869804     12.55%    100.00% (Unspecified)
system.caches.L1Cache_Controller.S.L1_Replacement::total     14903642                       (Unspecified)
system.caches.L1Cache_Controller.E.Load  |     1529689     12.35%     12.35% |     1549177     12.50%     24.85% |     1556364     12.56%     37.41% |     1550258     12.51%     49.93% |     1542888     12.45%     62.38% |     1535596     12.39%     74.77% |     1551415     12.52%     87.30% |     1574053     12.70%    100.00% (Unspecified)
system.caches.L1Cache_Controller.E.Load::total     12389440                       (Unspecified)
system.caches.L1Cache_Controller.E.Store |        6734     12.23%     12.23% |        7018     12.75%     24.98% |        7066     12.84%     37.82% |        6912     12.56%     50.37% |        6660     12.10%     62.47% |        6732     12.23%     74.70% |        6867     12.47%     87.17% |        7062     12.83%    100.00% (Unspecified)
system.caches.L1Cache_Controller.E.Store::total        55051                       (Unspecified)
system.caches.L1Cache_Controller.E.Inv   |       14819     12.35%     12.35% |       15259     12.72%     25.07% |       15220     12.69%     37.76% |       15064     12.56%     50.31% |       14773     12.31%     62.63% |       14897     12.42%     75.04% |       15024     12.52%     87.57% |       14915     12.43%    100.00% (Unspecified)
system.caches.L1Cache_Controller.E.Inv::total       119971                       (Unspecified)
system.caches.L1Cache_Controller.E.L1_Replacement |     1169772     12.59%     12.59% |     1149601     12.37%     24.96% |     1152054     12.40%     37.36% |     1159057     12.47%     49.83% |     1166548     12.55%     62.39% |     1167877     12.57%     74.96% |     1171292     12.61%     87.56% |     1155513     12.44%    100.00% (Unspecified)
system.caches.L1Cache_Controller.E.L1_Replacement::total      9291714                       (Unspecified)
system.caches.L1Cache_Controller.E.Fwd_GETX |           0      0.00%      0.00% |           3     42.86%     42.86% |           4     57.14%    100.00% |           0      0.00%    100.00% |           0      0.00%    100.00% |           0      0.00%    100.00% |           0      0.00%    100.00% |           0      0.00%    100.00% (Unspecified)
system.caches.L1Cache_Controller.E.Fwd_GETX::total            7                       (Unspecified)
system.caches.L1Cache_Controller.E.Fwd_GETS |      211908     12.54%     12.54% |      210531     12.46%     25.01% |      210466     12.46%     37.46% |      212156     12.56%     50.02% |      211422     12.51%     62.54% |      210827     12.48%     75.02% |      211342     12.51%     87.53% |      210740     12.47%    100.00% (Unspecified)
system.caches.L1Cache_Controller.E.Fwd_GETS::total      1689392                       (Unspecified)
system.caches.L1Cache_Controller.M.Load  |      129902     12.53%     12.53% |      131643     12.70%     25.22% |      133586     12.88%     38.11% |      128896     12.43%     50.54% |      124688     12.03%     62.56% |      127803     12.33%     74.89% |      128184     12.36%     87.25% |      132179     12.75%    100.00% (Unspecified)
system.caches.L1Cache_Controller.M.Load::total      1036881                       (Unspecified)
system.caches.L1Cache_Controller.M.Store |      123229     12.54%     12.54% |      124710     12.69%     25.23% |      125932     12.82%     38.05% |      123175     12.54%     50.59% |      118548     12.07%     62.65% |      119636     12.18%     74.83% |      121930     12.41%     87.24% |      125391     12.76%    100.00% (Unspecified)
system.caches.L1Cache_Controller.M.Store::total       982551                       (Unspecified)
system.caches.L1Cache_Controller.M.Inv   |         304     14.71%     14.71% |         275     13.30%     28.01% |         281     13.59%     41.61% |         228     11.03%     52.64% |         258     12.48%     65.12% |         247     11.95%     77.07% |         235     11.37%     88.44% |         239     11.56%    100.00% (Unspecified)
system.caches.L1Cache_Controller.M.Inv::total         2067                       (Unspecified)
system.caches.L1Cache_Controller.M.L1_Replacement |       14707     21.36%     21.36% |        7785     11.31%     32.67% |        7836     11.38%     44.06% |        7813     11.35%     55.40% |        7552     10.97%     66.37% |        7566     10.99%     77.37% |        7672     11.14%     88.51% |        7910     11.49%    100.00% (Unspecified)
system.caches.L1Cache_Controller.M.L1_Replacement::total        68841                       (Unspecified)
system.caches.L1Cache_Controller.M.Fwd_GETX |        1510     11.93%     11.93% |        1618     12.78%     24.72% |        1635     12.92%     37.63% |        1598     12.63%     50.26% |        1535     12.13%     62.39% |        1550     12.25%     74.64% |        1576     12.45%     87.09% |        1634     12.91%    100.00% (Unspecified)
system.caches.L1Cache_Controller.M.Fwd_GETX::total        12656                       (Unspecified)
system.caches.L1Cache_Controller.M.Fwd_GETS |        2165     15.02%     15.02% |        1788     12.40%     27.42% |        1822     12.64%     40.06% |        1754     12.17%     52.22% |        1659     11.51%     63.73% |        1704     11.82%     75.55% |        1744     12.10%     87.65% |        1781     12.35%    100.00% (Unspecified)
system.caches.L1Cache_Controller.M.Fwd_GETS::total        14417                       (Unspecified)
system.caches.L1Cache_Controller.IS.Inv  |           2      1.69%      1.69% |          13     11.02%     12.71% |          35     29.66%     42.37% |          40     33.90%     76.27% |          21     17.80%     94.07% |           3      2.54%     96.61% |           2      1.69%     98.31% |           2      1.69%    100.00% (Unspecified)
system.caches.L1Cache_Controller.IS.Inv::total          118                       (Unspecified)
system.caches.L1Cache_Controller.IS.L1_Replacement |           2     25.00%     25.00% |           2     25.00%     50.00% |           1     12.50%     62.50% |           2     25.00%     87.50% |           1     12.50%    100.00% |           0      0.00%    100.00% |           0      0.00%    100.00% |           0      0.00%    100.00% (Unspecified)
system.caches.L1Cache_Controller.IS.L1_Replacement::total            8                       (Unspecified)
system.caches.L1Cache_Controller.IS.Data_Exclusive |     1405401     12.60%     12.60% |     1382210     12.39%     24.99% |     1384521     12.41%     37.39% |     1393142     12.49%     49.88% |     1399189     12.54%     62.42% |     1400162     12.55%     74.97% |     1404216     12.59%     87.56% |     1388184     12.44%    100.00% (Unspecified)
system.caches.L1Cache_Controller.IS.Data_Exclusive::total     11157025                       (Unspecified)
system.caches.L1Cache_Controller.IS.DataS_fromL1 |      215325     12.64%     12.64% |      212082     12.45%     25.09% |      211369     12.41%     37.49% |      211965     12.44%     49.93% |      213690     12.54%     62.47% |      213843     12.55%     75.02% |      213337     12.52%     87.54% |      212222     12.46%    100.00% (Unspecified)
system.caches.L1Cache_Controller.IS.DataS_fromL1::total      1703833                       (Unspecified)
system.caches.L1Cache_Controller.IS.Data_all_Acks |     1458077     12.46%     12.46% |     1446585     12.36%     24.82% |     1455237     12.43%     37.25% |     1467833     12.54%     49.80% |     1473195     12.59%     62.38% |     1474193     12.60%     74.98% |     1457888     12.46%     87.44% |     1470317     12.56%    100.00% (Unspecified)
system.caches.L1Cache_Controller.IS.Data_all_Acks::total     11703325                       (Unspecified)
system.caches.L1Cache_Controller.IM.Data |          35    100.00%    100.00% |           0      0.00%    100.00% |           0      0.00%    100.00% |           0      0.00%    100.00% |           0      0.00%    100.00% |           0      0.00%    100.00% |           0      0.00%    100.00% |           0      0.00%    100.00% (Unspecified)
system.caches.L1Cache_Controller.IM.Data::total           35                       (Unspecified)
system.caches.L1Cache_Controller.IM.Data_all_Acks |        3036     14.00%     14.00% |        2677     12.35%     26.35% |        2711     12.50%     38.85% |        2689     12.40%     51.26% |        2648     12.21%     63.47% |        2627     12.12%     75.59% |        2614     12.06%     87.64% |        2679     12.36%    100.00% (Unspecified)
system.caches.L1Cache_Controller.IM.Data_all_Acks::total        21681                       (Unspecified)
system.caches.L1Cache_Controller.SM.Inv  |           0      0.00%      0.00% |           2      7.69%      7.69% |           1      3.85%     11.54% |           0      0.00%     11.54% |           5     19.23%     30.77% |           6     23.08%     53.85% |           7     26.92%     80.77% |           5     19.23%    100.00% (Unspecified)
system.caches.L1Cache_Controller.SM.Inv::total           26                       (Unspecified)
system.caches.L1Cache_Controller.SM.Ack  |        2264     15.47%     15.47% |        1769     12.08%     27.55% |        1812     12.38%     39.93% |        1780     12.16%     52.09% |        1705     11.65%     63.73% |        1715     11.72%     75.45% |        1772     12.10%     87.55% |        1822     12.45%    100.00% (Unspecified)
system.caches.L1Cache_Controller.SM.Ack::total        14639                       (Unspecified)
system.caches.L1Cache_Controller.SM.Ack_all |        1887     13.23%     13.23% |        1769     12.40%     25.63% |        1812     12.71%     38.34% |        1780     12.48%     50.82% |        1705     11.95%     62.78% |        1715     12.02%     74.80% |        1772     12.42%     87.22% |        1822     12.78%    100.00% (Unspecified)
system.caches.L1Cache_Controller.SM.Ack_all::total        14262                       (Unspecified)
system.caches.L1Cache_Controller.IS_I.Data_Exclusive |           2     11.76%     11.76% |           1      5.88%     17.65% |           2     11.76%     29.41% |           1      5.88%     35.29% |           4     23.53%     58.82% |           3     17.65%     76.47% |           2     11.76%     88.24% |           2     11.76%    100.00% (Unspecified)
system.caches.L1Cache_Controller.IS_I.Data_Exclusive::total           17                       (Unspecified)
system.caches.L1Cache_Controller.IS_I.Data_all_Acks |           0      0.00%      0.00% |          12     11.88%     11.88% |          33     32.67%     44.55% |          39     38.61%     83.17% |          17     16.83%    100.00% |           0      0.00%    100.00% |           0      0.00%    100.00% |           0      0.00%    100.00% (Unspecified)
system.caches.L1Cache_Controller.IS_I.Data_all_Acks::total          101                       (Unspecified)
system.caches.L1Cache_Controller.M_I.Load |           5      7.14%      7.14% |           8     11.43%     18.57% |           8     11.43%     30.00% |           8     11.43%     41.43% |          10     14.29%     55.71% |           9     12.86%     68.57% |          10     14.29%     82.86% |          12     17.14%    100.00% (Unspecified)
system.caches.L1Cache_Controller.M_I.Load::total           70                       (Unspecified)
system.caches.L1Cache_Controller.M_I.Inv |           1      4.76%      4.76% |           1      4.76%      9.52% |           0      0.00%      9.52% |           5     23.81%     33.33% |           5     23.81%     57.14% |           5     23.81%     80.95% |           2      9.52%     90.48% |           2      9.52%    100.00% (Unspecified)
system.caches.L1Cache_Controller.M_I.Inv::total           21                       (Unspecified)
system.caches.L1Cache_Controller.M_I.Fwd_GETS |           3     12.50%     12.50% |           2      8.33%     20.83% |           3     12.50%     33.33% |           3     12.50%     45.83% |           4     16.67%     62.50% |           2      8.33%     70.83% |           4     16.67%     87.50% |           3     12.50%    100.00% (Unspecified)
system.caches.L1Cache_Controller.M_I.Fwd_GETS::total           24                       (Unspecified)
system.caches.L1Cache_Controller.M_I.WB_Ack |     1184475     12.65%     12.65% |     1157383     12.36%     25.02% |     1159887     12.39%     37.41% |     1166862     12.47%     49.88% |     1174091     12.54%     62.42% |     1175436     12.56%     74.98% |     1178958     12.60%     87.57% |     1163418     12.43%    100.00% (Unspecified)
system.caches.L1Cache_Controller.M_I.WB_Ack::total      9360510                       (Unspecified)
system.caches.L1Cache_Controller.SINK_WB_ACK.WB_Ack |           4      8.89%      8.89% |           3      6.67%     15.56% |           3      6.67%     22.22% |           8     17.78%     40.00% |           9     20.00%     60.00% |           7     15.56%     75.56% |           6     13.33%     88.89% |           5     11.11%    100.00% (Unspecified)
system.caches.L1Cache_Controller.SINK_WB_ACK.WB_Ack::total           45                       (Unspecified)
system.caches.Directory_Controller.Fetch |        9107      0.11%      0.11% |     7998813     99.89%    100.00% (Unspecified)
system.caches.Directory_Controller.Fetch::total      8007920                       (Unspecified)
system.caches.Directory_Controller.Data  |         647      0.52%      0.52% |      123078     99.48%    100.00% (Unspecified)
system.caches.Directory_Controller.Data::total       123725                       (Unspecified)
system.caches.Directory_Controller.Memory_Data |        9107      0.11%      0.11% |     7998779     99.89%    100.00% (Unspecified)
system.caches.Directory_Controller.Memory_Data::total      8007886                       (Unspecified)
system.caches.Directory_Controller.Memory_Ack |         647      0.52%      0.52% |      123078     99.48%    100.00% (Unspecified)
system.caches.Directory_Controller.Memory_Ack::total       123725                       (Unspecified)
system.caches.Directory_Controller.CleanReplacement |        8601      0.11%      0.11% |     7875594     99.89%    100.00% (Unspecified)
system.caches.Directory_Controller.CleanReplacement::total      7884195                       (Unspecified)
system.caches.Directory_Controller.I.Fetch |        9107      0.11%      0.11% |     7998813     99.89%    100.00% (Unspecified)
system.caches.Directory_Controller.I.Fetch::total      8007920                       (Unspecified)
system.caches.Directory_Controller.M.Data |         647      0.52%      0.52% |      123078     99.48%    100.00% (Unspecified)
system.caches.Directory_Controller.M.Data::total       123725                       (Unspecified)
system.caches.Directory_Controller.M.CleanReplacement |        8601      0.11%      0.11% |     7875594     99.89%    100.00% (Unspecified)
system.caches.Directory_Controller.M.CleanReplacement::total      7884195                       (Unspecified)
system.caches.Directory_Controller.IM.Memory_Data |        9107      0.11%      0.11% |     7998779     99.89%    100.00% (Unspecified)
system.caches.Directory_Controller.IM.Memory_Data::total      8007886                       (Unspecified)
system.caches.Directory_Controller.MI.Memory_Ack |         647      0.52%      0.52% |      123078     99.48%    100.00% (Unspecified)
system.caches.Directory_Controller.MI.Memory_Ack::total       123725                       (Unspecified)
system.caches.L2Cache_Controller.L1_GET_INSTR |        5918     11.14%     11.14% |        7424     13.97%     25.11% |        6376     12.00%     37.12% |        4493      8.46%     45.57% |        6860     12.91%     58.49% |        7525     14.16%     72.65% |        7481     14.08%     86.73% |        7047     13.27%    100.00% (Unspecified)
system.caches.L2Cache_Controller.L1_GET_INSTR::total        53124                       (Unspecified)
system.caches.L2Cache_Controller.L1_GETS |     3110276     12.69%     12.69% |     3075477     12.55%     25.23% |     3072193     12.53%     37.77% |     3043141     12.41%     50.18% |     3046917     12.43%     62.61% |     3074807     12.54%     75.16% |     3030791     12.36%     87.52% |     3059114     12.48%    100.00% (Unspecified)
system.caches.L2Cache_Controller.L1_GETS::total     24512716                       (Unspecified)
system.caches.L2Cache_Controller.L1_GETX |        2131      9.80%      9.80% |        1646      7.57%     17.36% |         136      0.63%     17.99% |       13255     60.94%     78.93% |         911      4.19%     83.11% |        1553      7.14%     90.25% |         876      4.03%     94.28% |        1244      5.72%    100.00% (Unspecified)
system.caches.L2Cache_Controller.L1_GETX::total        21752                       (Unspecified)
system.caches.L2Cache_Controller.L1_UPGRADE |           1      0.01%      0.01% |        7042     49.19%     49.19% |           0      0.00%     49.19% |           0      0.00%     49.19% |           0      0.00%     49.19% |        7059     49.31%     98.50% |         215      1.50%    100.00% |           0      0.00%    100.00% (Unspecified)
system.caches.L2Cache_Controller.L1_UPGRADE::total        14317                       (Unspecified)
system.caches.L2Cache_Controller.L1_PUTX |     1168222     12.48%     12.48% |     1174998     12.55%     25.03% |     1168112     12.48%     37.51% |     1170597     12.51%     50.02% |     1167912     12.48%     62.49% |     1175633     12.56%     75.05% |     1161806     12.41%     87.47% |     1173278     12.53%    100.00% (Unspecified)
system.caches.L2Cache_Controller.L1_PUTX::total      9360558                       (Unspecified)
system.caches.L2Cache_Controller.L1_PUTX_old |           4      9.52%      9.52% |           8     19.05%     28.57% |           2      4.76%     33.33% |          10     23.81%     57.14% |           2      4.76%     61.90% |           8     19.05%     80.95% |           6     14.29%     95.24% |           2      4.76%    100.00% (Unspecified)
system.caches.L2Cache_Controller.L1_PUTX_old::total           42                       (Unspecified)
system.caches.L2Cache_Controller.L2_Replacement |       15639     12.79%     12.79% |       15331     12.54%     25.34% |       14155     11.58%     36.92% |       14906     12.19%     49.11% |       15115     12.37%     61.48% |       16210     13.26%     74.74% |       15251     12.48%     87.22% |       15624     12.78%    100.00% (Unspecified)
system.caches.L2Cache_Controller.L2_Replacement::total       122231                       (Unspecified)
system.caches.L2Cache_Controller.L2_Replacement_clean |      983211     12.47%     12.47% |      988865     12.54%     25.01% |      980971     12.44%     37.45% |      990711     12.56%     50.01% |      985408     12.50%     62.51% |      988042     12.53%     75.04% |      981290     12.44%     87.48% |      987191     12.52%    100.00% (Unspecified)
system.caches.L2Cache_Controller.L2_Replacement_clean::total      7885689                       (Unspecified)
system.caches.L2Cache_Controller.Mem_Data |      998841     12.47%     12.47% |     1004193     12.54%     25.01% |      995121     12.43%     37.44% |     1005616     12.56%     50.00% |     1000522     12.49%     62.49% |     1004250     12.54%     75.03% |      996537     12.44%     87.48% |     1002806     12.52%    100.00% (Unspecified)
system.caches.L2Cache_Controller.Mem_Data::total      8007886                       (Unspecified)
system.caches.L2Cache_Controller.Mem_Ack |      998850     12.47%     12.47% |     1004196     12.54%     25.01% |      995126     12.43%     37.44% |     1005617     12.56%     50.00% |     1000523     12.49%     62.49% |     1004252     12.54%     75.03% |      996541     12.44%     87.48% |     1002815     12.52%    100.00% (Unspecified)
system.caches.L2Cache_Controller.Mem_Ack::total      8007920                       (Unspecified)
system.caches.L2Cache_Controller.WB_Data |         664      4.03%      4.03% |        7534     45.70%     49.73% |         162      0.98%     50.71% |         200      1.21%     51.93% |         166      1.01%     52.93% |        7170     43.49%     96.43% |         346      2.10%     98.53% |         243      1.47%    100.00% (Unspecified)
system.caches.L2Cache_Controller.WB_Data::total        16485                       (Unspecified)
system.caches.L2Cache_Controller.WB_Data_clean |      217424     12.87%     12.87% |      210026     12.43%     25.30% |      208566     12.35%     37.65% |      212887     12.60%     50.25% |      210529     12.46%     62.71% |      209955     12.43%     75.14% |      209735     12.41%     87.55% |      210314     12.45%    100.00% (Unspecified)
system.caches.L2Cache_Controller.WB_Data_clean::total      1689436                       (Unspecified)
system.caches.L2Cache_Controller.Ack     |      568199     12.52%     12.52% |      568587     12.52%     25.04% |      567204     12.49%     37.53% |      572896     12.62%     50.15% |      567416     12.50%     62.65% |      565272     12.45%     75.10% |      565092     12.45%     87.55% |      565455     12.45%    100.00% (Unspecified)
system.caches.L2Cache_Controller.Ack::total      4540121                       (Unspecified)
system.caches.L2Cache_Controller.Ack_all |      230099     12.80%     12.80% |      223904     12.45%     25.25% |      222098     12.35%     37.61% |      227067     12.63%     50.24% |      223760     12.45%     62.68% |      223761     12.45%     75.13% |      223448     12.43%     87.56% |      223682     12.44%    100.00% (Unspecified)
system.caches.L2Cache_Controller.Ack_all::total      1797819                       (Unspecified)
system.caches.L2Cache_Controller.Unblock |      217513     12.77%     12.77% |      217029     12.74%     25.50% |      208593     12.24%     37.75% |      212906     12.50%     50.24% |      210553     12.36%     62.60% |      216957     12.73%     75.33% |      209945     12.32%     87.66% |      210337     12.34%    100.00% (Unspecified)
system.caches.L2Cache_Controller.Unblock::total      1703833                       (Unspecified)
system.caches.L2Cache_Controller.Exclusive_Unblock |     1399385     12.50%     12.50% |     1407014     12.57%     25.07% |     1390936     12.43%     37.50% |     1411483     12.61%     50.11% |     1392550     12.44%     62.55% |     1407304     12.57%     75.12% |     1386545     12.39%     87.51% |     1397768     12.49%    100.00% (Unspecified)
system.caches.L2Cache_Controller.Exclusive_Unblock::total     11192985                       (Unspecified)
system.caches.L2Cache_Controller.NP.L1_GET_INSTR |         921     11.75%     11.75% |        1105     14.10%     25.85% |         975     12.44%     38.29% |         702      8.96%     47.24% |        1001     12.77%     60.02% |        1034     13.19%     73.21% |        1028     13.12%     86.32% |        1072     13.68%    100.00% (Unspecified)
system.caches.L2Cache_Controller.NP.L1_GET_INSTR::total         7838                       (Unspecified)
system.caches.L2Cache_Controller.NP.L1_GETS |      996337     12.47%     12.47% |     1001837     12.54%     25.00% |      994022     12.44%     37.44% |     1004313     12.57%     50.00% |      998664     12.50%     62.50% |     1001768     12.53%     75.03% |      994708     12.45%     87.48% |     1000653     12.52%    100.00% (Unspecified)
system.caches.L2Cache_Controller.NP.L1_GETS::total      7992302                       (Unspecified)
system.caches.L2Cache_Controller.NP.L1_GETX |        1592     20.46%     20.46% |        1254     16.12%     36.58% |         129      1.66%     38.24% |         602      7.74%     45.98% |         858     11.03%     57.01% |        1450     18.64%     75.64% |         805     10.35%     85.99% |        1090     14.01%    100.00% (Unspecified)
system.caches.L2Cache_Controller.NP.L1_GETX::total         7780                       (Unspecified)
system.caches.L2Cache_Controller.NP.L1_PUTX_old |           2      9.52%      9.52% |           4     19.05%     28.57% |           1      4.76%     33.33% |           5     23.81%     57.14% |           1      4.76%     61.90% |           4     19.05%     80.95% |           3     14.29%     95.24% |           1      4.76%    100.00% (Unspecified)
system.caches.L2Cache_Controller.NP.L1_PUTX_old::total           21                       (Unspecified)
system.caches.L2Cache_Controller.SS.L1_GET_INSTR |        3189     10.59%     10.59% |        4085     13.56%     24.15% |        3723     12.36%     36.51% |        2344      7.78%     44.29% |        3764     12.50%     56.79% |        4336     14.39%     71.18% |        4412     14.65%     85.83% |        4269     14.17%    100.00% (Unspecified)
system.caches.L2Cache_Controller.SS.L1_GET_INSTR::total        30122                       (Unspecified)
system.caches.L2Cache_Controller.SS.L1_GETS |     1493221     12.83%     12.83% |     1458540     12.53%     25.36% |     1471177     12.64%     38.00% |     1430992     12.29%     50.29% |     1443620     12.40%     62.69% |     1457956     12.52%     75.22% |     1433912     12.32%     87.53% |     1451078     12.47%    100.00% (Unspecified)
system.caches.L2Cache_Controller.SS.L1_GETS::total     11640496                       (Unspecified)
system.caches.L2Cache_Controller.SS.L1_GETX |          20     57.14%     57.14% |           0      0.00%     57.14% |           0      0.00%     57.14% |           0      0.00%     57.14% |           0      0.00%     57.14% |           0      0.00%     57.14% |          15     42.86%    100.00% |           0      0.00%    100.00% (Unspecified)
system.caches.L2Cache_Controller.SS.L1_GETX::total           35                       (Unspecified)
system.caches.L2Cache_Controller.SS.L1_UPGRADE |           1      0.01%      0.01% |        7026     49.38%     49.39% |           0      0.00%     49.39% |           0      0.00%     49.39% |           0      0.00%     49.39% |        7042     49.50%     98.89% |         158      1.11%    100.00% |           0      0.00%    100.00% (Unspecified)
system.caches.L2Cache_Controller.SS.L1_UPGRADE::total        14227                       (Unspecified)
system.caches.L2Cache_Controller.SS.L1_PUTX |           4     16.67%     16.67% |           3     12.50%     29.17% |           3     12.50%     41.67% |           2      8.33%     50.00% |           4     16.67%     66.67% |           1      4.17%     70.83% |           4     16.67%     87.50% |           3     12.50%    100.00% (Unspecified)
system.caches.L2Cache_Controller.SS.L1_PUTX::total           24                       (Unspecified)
system.caches.L2Cache_Controller.SS.L2_Replacement |         627     13.03%     13.03% |         616     12.80%     25.84% |         603     12.53%     38.37% |         590     12.26%     50.63% |         585     12.16%     62.79% |         617     12.82%     75.62% |         626     13.01%     88.63% |         547     11.37%    100.00% (Unspecified)
system.caches.L2Cache_Controller.SS.L2_Replacement::total         4811                       (Unspecified)
system.caches.L2Cache_Controller.SS.L2_Replacement_clean |      215472     12.88%     12.88% |      208147     12.44%     25.32% |      206680     12.35%     37.67% |      210523     12.58%     50.26% |      208544     12.46%     62.72% |      207759     12.42%     75.14% |      207478     12.40%     87.54% |      208434     12.46%    100.00% (Unspecified)
system.caches.L2Cache_Controller.SS.L2_Replacement_clean::total      1673037                       (Unspecified)
system.caches.L2Cache_Controller.M.L1_GET_INSTR |           0      0.00%      0.00% |           3     30.00%     30.00% |           1     10.00%     40.00% |           0      0.00%     40.00% |           0      0.00%     40.00% |           1     10.00%     50.00% |           2     20.00%     70.00% |           3     30.00%    100.00% (Unspecified)
system.caches.L2Cache_Controller.M.L1_GET_INSTR::total           10                       (Unspecified)
system.caches.L2Cache_Controller.M.L1_GETS |      401641     12.68%     12.68% |      397043     12.53%     25.21% |      397365     12.54%     37.75% |      394315     12.44%     50.19% |      393418     12.42%     62.61% |      397372     12.54%     75.15% |      391099     12.34%     87.49% |      396366     12.51%    100.00% (Unspecified)
system.caches.L2Cache_Controller.M.L1_GETS::total      3168619                       (Unspecified)
system.caches.L2Cache_Controller.M.L1_GETX |         511     41.28%     41.28% |         368     29.73%     71.00% |           7      0.57%     71.57% |          20      1.62%     73.18% |          52      4.20%     77.38% |          74      5.98%     83.36% |          52      4.20%     87.56% |         154     12.44%    100.00% (Unspecified)
system.caches.L2Cache_Controller.M.L1_GETX::total         1238                       (Unspecified)
system.caches.L2Cache_Controller.M.L2_Replacement |       14796     12.68%     12.68% |       14433     12.37%     25.05% |       13527     11.59%     36.65% |       14285     12.24%     48.89% |       14516     12.44%     61.33% |       15483     13.27%     74.61% |       14601     12.52%     87.12% |       15025     12.88%    100.00% (Unspecified)
system.caches.L2Cache_Controller.M.L2_Replacement::total       116666                       (Unspecified)
system.caches.L2Cache_Controller.M.L2_Replacement_clean |      753380     12.37%     12.37% |      765328     12.56%     24.93% |      759366     12.47%     37.40% |      764084     12.54%     49.94% |      762105     12.51%     62.45% |      764840     12.56%     75.01% |      758356     12.45%     87.46% |      763888     12.54%    100.00% (Unspecified)
system.caches.L2Cache_Controller.M.L2_Replacement_clean::total      6091347                       (Unspecified)
system.caches.L2Cache_Controller.MT.L1_GETS |      217513     12.77%     12.77% |      217029     12.74%     25.50% |      208593     12.24%     37.75% |      212906     12.50%     50.24% |      210553     12.36%     62.60% |      216957     12.73%     75.33% |      209945     12.32%     87.66% |      210337     12.34%    100.00% (Unspecified)
system.caches.L2Cache_Controller.MT.L1_GETS::total      1703833                       (Unspecified)
system.caches.L2Cache_Controller.MT.L1_GETX |           4      0.03%      0.03% |          20      0.16%      0.19% |           0      0.00%      0.19% |       12615     99.62%     99.81% |           0      0.00%     99.81% |          21      0.17%     99.98% |           3      0.02%    100.00% |           0      0.00%    100.00% (Unspecified)
system.caches.L2Cache_Controller.MT.L1_GETX::total        12663                       (Unspecified)
system.caches.L2Cache_Controller.MT.L1_PUTX |     1168214     12.48%     12.48% |     1174992     12.55%     25.03% |     1168106     12.48%     37.51% |     1170593     12.51%     50.02% |     1167904     12.48%     62.49% |     1175631     12.56%     75.05% |     1161798     12.41%     87.47% |     1173272     12.53%    100.00% (Unspecified)
system.caches.L2Cache_Controller.MT.L1_PUTX::total      9360510                       (Unspecified)
system.caches.L2Cache_Controller.MT.L2_Replacement |         216     28.65%     28.65% |         282     37.40%     66.05% |          25      3.32%     69.36% |          31      4.11%     73.47% |          14      1.86%     75.33% |         110     14.59%     89.92% |          24      3.18%     93.10% |          52      6.90%    100.00% (Unspecified)
system.caches.L2Cache_Controller.MT.L2_Replacement::total          754                       (Unspecified)
system.caches.L2Cache_Controller.MT.L2_Replacement_clean |       14359     11.84%     11.84% |       15390     12.69%     24.52% |       14925     12.30%     36.83% |       16104     13.28%     50.10% |       14759     12.17%     62.27% |       15443     12.73%     75.00% |       15456     12.74%     87.74% |       14869     12.26%    100.00% (Unspecified)
system.caches.L2Cache_Controller.MT.L2_Replacement_clean::total       121305                       (Unspecified)
system.caches.L2Cache_Controller.M_I.L1_GET_INSTR |           0      0.00%      0.00% |           0      0.00%      0.00% |          13     48.15%     48.15% |           9     33.33%     81.48% |           0      0.00%     81.48% |           0      0.00%     81.48% |           5     18.52%    100.00% |           0      0.00%    100.00% (Unspecified)
system.caches.L2Cache_Controller.M_I.L1_GET_INSTR::total           27                       (Unspecified)
system.caches.L2Cache_Controller.M_I.L1_GETS |          76     46.34%     46.34% |          25     15.24%     61.59% |          26     15.85%     77.44% |           8      4.88%     82.32% |           8      4.88%     87.20% |          10      6.10%     93.29% |           5      3.05%     96.34% |           6      3.66%    100.00% (Unspecified)
system.caches.L2Cache_Controller.M_I.L1_GETS::total          164                       (Unspecified)
system.caches.L2Cache_Controller.M_I.L1_GETX |           4     80.00%     80.00% |           0      0.00%     80.00% |           0      0.00%     80.00% |           0      0.00%     80.00% |           1     20.00%    100.00% |           0      0.00%    100.00% |           0      0.00%    100.00% |           0      0.00%    100.00% (Unspecified)
system.caches.L2Cache_Controller.M_I.L1_GETX::total            5                       (Unspecified)
system.caches.L2Cache_Controller.M_I.Mem_Ack |      998850     12.47%     12.47% |     1004196     12.54%     25.01% |      995126     12.43%     37.44% |     1005617     12.56%     50.00% |     1000523     12.49%     62.49% |     1004252     12.54%     75.03% |      996541     12.44%     87.48% |     1002815     12.52%    100.00% (Unspecified)
system.caches.L2Cache_Controller.M_I.Mem_Ack::total      8007920                       (Unspecified)
system.caches.L2Cache_Controller.MT_I.WB_Data |         194     33.86%     33.86% |         264     46.07%     79.93% |           0      0.00%     79.93% |           3      0.52%     80.45% |           0      0.00%     80.45% |          85     14.83%     95.29% |           3      0.52%     95.81% |          24      4.19%    100.00% (Unspecified)
system.caches.L2Cache_Controller.MT_I.WB_Data::total          573                       (Unspecified)
system.caches.L2Cache_Controller.MT_I.Ack_all |          22     12.15%     12.15% |          18      9.94%     22.10% |          25     13.81%     35.91% |          28     15.47%     51.38% |          14      7.73%     59.12% |          25     13.81%     72.93% |          21     11.60%     84.53% |          28     15.47%    100.00% (Unspecified)
system.caches.L2Cache_Controller.MT_I.Ack_all::total          181                       (Unspecified)
system.caches.L2Cache_Controller.MCT_I.L1_PUTX_old |           2      9.52%      9.52% |           4     19.05%     28.57% |           1      4.76%     33.33% |           5     23.81%     57.14% |           1      4.76%     61.90% |           4     19.05%     80.95% |           3     14.29%     95.24% |           1      4.76%    100.00% (Unspecified)
system.caches.L2Cache_Controller.MCT_I.L1_PUTX_old::total           21                       (Unspecified)
system.caches.L2Cache_Controller.MCT_I.WB_Data |         379     25.37%     25.37% |         263     17.60%     42.97% |         134      8.97%     51.94% |         173     11.58%     63.52% |         141      9.44%     72.96% |          79      5.29%     78.25% |         130      8.70%     86.95% |         195     13.05%    100.00% (Unspecified)
system.caches.L2Cache_Controller.MCT_I.WB_Data::total         1494                       (Unspecified)
system.caches.L2Cache_Controller.MCT_I.WB_Data_clean |           2      9.52%      9.52% |           4     19.05%     28.57% |           1      4.76%     33.33% |           5     23.81%     57.14% |           1      4.76%     61.90% |           4     19.05%     80.95% |           3     14.29%     95.24% |           1      4.76%    100.00% (Unspecified)
system.caches.L2Cache_Controller.MCT_I.WB_Data_clean::total           21                       (Unspecified)
system.caches.L2Cache_Controller.MCT_I.Ack_all |       13978     11.67%     11.67% |       15123     12.62%     24.29% |       14790     12.35%     36.64% |       15926     13.29%     49.93% |       14617     12.20%     62.14% |       15360     12.82%     74.96% |       15323     12.79%     87.75% |       14673     12.25%    100.00% (Unspecified)
system.caches.L2Cache_Controller.MCT_I.Ack_all::total       119790                       (Unspecified)
system.caches.L2Cache_Controller.I_I.L1_GETS |           2      8.70%      8.70% |           3     13.04%     21.74% |           1      4.35%     26.09% |           3     13.04%     39.13% |           5     21.74%     60.87% |           1      4.35%     65.22% |           5     21.74%     86.96% |           3     13.04%    100.00% (Unspecified)
system.caches.L2Cache_Controller.I_I.L1_GETS::total           23                       (Unspecified)
system.caches.L2Cache_Controller.I_I.Ack |      566389     12.51%     12.51% |      566916     12.52%     25.03% |      565606     12.49%     37.53% |      571359     12.62%     50.15% |      565891     12.50%     62.65% |      563735     12.45%     75.10% |      563349     12.44%     87.54% |      564045     12.46%    100.00% (Unspecified)
system.caches.L2Cache_Controller.I_I.Ack::total      4527290                       (Unspecified)
system.caches.L2Cache_Controller.I_I.Ack_all |      215472     12.88%     12.88% |      208147     12.44%     25.32% |      206680     12.35%     37.67% |      210523     12.58%     50.26% |      208544     12.46%     62.72% |      207759     12.42%     75.14% |      207478     12.40%     87.54% |      208434     12.46%    100.00% (Unspecified)
system.caches.L2Cache_Controller.I_I.Ack_all::total      1673037                       (Unspecified)
system.caches.L2Cache_Controller.S_I.Ack |        1810     14.11%     14.11% |        1671     13.02%     27.13% |        1598     12.45%     39.58% |        1537     11.98%     51.56% |        1525     11.89%     63.45% |        1537     11.98%     75.43% |        1743     13.58%     89.01% |        1410     10.99%    100.00% (Unspecified)
system.caches.L2Cache_Controller.S_I.Ack::total        12831                       (Unspecified)
system.caches.L2Cache_Controller.S_I.Ack_all |         627     13.03%     13.03% |         616     12.80%     25.84% |         603     12.53%     38.37% |         590     12.26%     50.63% |         585     12.16%     62.79% |         617     12.82%     75.62% |         626     13.01%     88.63% |         547     11.37%    100.00% (Unspecified)
system.caches.L2Cache_Controller.S_I.Ack_all::total         4811                       (Unspecified)
system.caches.L2Cache_Controller.ISS.L1_GETS |         712     18.52%     18.52% |         531     13.81%     32.33% |         582     15.14%     47.46% |         381      9.91%     57.37% |         441     11.47%     68.84% |         421     10.95%     79.79% |         291      7.57%     87.36% |         486     12.64%    100.00% (Unspecified)
system.caches.L2Cache_Controller.ISS.L1_GETS::total         3845                       (Unspecified)
system.caches.L2Cache_Controller.ISS.L1_GETX |           0      0.00%      0.00% |           0      0.00%      0.00% |           0      0.00%      0.00% |           0      0.00%      0.00% |           0      0.00%      0.00% |           0      0.00%      0.00% |           1    100.00%    100.00% |           0      0.00%    100.00% (Unspecified)
system.caches.L2Cache_Controller.ISS.L1_GETX::total            1                       (Unspecified)
system.caches.L2Cache_Controller.ISS.Mem_Data |      995616     12.46%     12.46% |     1001303     12.53%     25.00% |      993435     12.44%     37.43% |     1003931     12.57%     50.00% |      998222     12.50%     62.50% |     1001345     12.53%     75.03% |      994413     12.45%     87.48% |     1000158     12.52%    100.00% (Unspecified)
system.caches.L2Cache_Controller.ISS.Mem_Data::total      7988423                       (Unspecified)
system.caches.L2Cache_Controller.IS.L1_GET_INSTR |        1808     11.95%     11.95% |        2231     14.75%     26.70% |        1664     11.00%     37.70% |        1438      9.51%     47.21% |        2095     13.85%     61.06% |        2154     14.24%     75.30% |        2034     13.45%     88.74% |        1703     11.26%    100.00% (Unspecified)
system.caches.L2Cache_Controller.IS.L1_GET_INSTR::total        15127                       (Unspecified)
system.caches.L2Cache_Controller.IS.L1_GETS |         644     30.05%     30.05% |         347     16.19%     46.24% |         360     16.80%     63.04% |         186      8.68%     71.72% |         180      8.40%     80.12% |         282     13.16%     93.28% |          36      1.68%     94.96% |         108      5.04%    100.00% (Unspecified)
system.caches.L2Cache_Controller.IS.L1_GETS::total         2143                       (Unspecified)
system.caches.L2Cache_Controller.IS.Mem_Data |        1633     13.98%     13.98% |        1636     14.00%     27.98% |        1557     13.33%     41.31% |        1083      9.27%     50.58% |        1442     12.34%     62.92% |        1455     12.45%     75.37% |        1319     11.29%     86.66% |        1558     13.34%    100.00% (Unspecified)
system.caches.L2Cache_Controller.IS.Mem_Data::total        11683                       (Unspecified)
system.caches.L2Cache_Controller.IM.Mem_Data |        1592     20.46%     20.46% |        1254     16.12%     36.58% |         129      1.66%     38.24% |         602      7.74%     45.98% |         858     11.03%     57.01% |        1450     18.64%     75.64% |         805     10.35%     85.99% |        1090     14.01%    100.00% (Unspecified)
system.caches.L2Cache_Controller.IM.Mem_Data::total         7780                       (Unspecified)
system.caches.L2Cache_Controller.SS_MB.L1_GETS |           0      0.00%      0.00% |           2      0.48%      0.48% |           0      0.00%      0.48% |           0      0.00%      0.48% |           0      0.00%      0.48% |           2      0.48%      0.95% |         416     99.05%    100.00% |           0      0.00%    100.00% (Unspecified)
system.caches.L2Cache_Controller.SS_MB.L1_GETS::total          420                       (Unspecified)
system.caches.L2Cache_Controller.SS_MB.L1_GETX |           0      0.00%      0.00% |           0      0.00%      0.00% |           0      0.00%      0.00% |           0      0.00%      0.00% |           0      0.00%      0.00% |           2    100.00%    100.00% |           0      0.00%    100.00% |           0      0.00%    100.00% (Unspecified)
system.caches.L2Cache_Controller.SS_MB.L1_GETX::total            2                       (Unspecified)
system.caches.L2Cache_Controller.SS_MB.L1_UPGRADE |           0      0.00%      0.00% |          14     53.85%     53.85% |           0      0.00%     53.85% |           0      0.00%     53.85% |           0      0.00%     53.85% |          12     46.15%    100.00% |           0      0.00%    100.00% |           0      0.00%    100.00% (Unspecified)
system.caches.L2Cache_Controller.SS_MB.L1_UPGRADE::total           26                       (Unspecified)
system.caches.L2Cache_Controller.SS_MB.Exclusive_Unblock |          21      0.15%      0.15% |        7026     49.26%     49.41% |           0      0.00%     49.41% |           0      0.00%     49.41% |           0      0.00%     49.41% |        7042     49.38%     98.79% |         173      1.21%    100.00% |           0      0.00%    100.00% (Unspecified)
system.caches.L2Cache_Controller.SS_MB.Exclusive_Unblock::total        14262                       (Unspecified)
system.caches.L2Cache_Controller.MT_MB.L1_GETS |          26     15.29%     15.29% |          29     17.06%     32.35% |          24     14.12%     46.47% |          23     13.53%     60.00% |          19     11.18%     71.18% |          14      8.24%     79.41% |           9      5.29%     84.71% |          26     15.29%    100.00% (Unspecified)
system.caches.L2Cache_Controller.MT_MB.L1_GETS::total          170                       (Unspecified)
system.caches.L2Cache_Controller.MT_MB.L1_GETX |           0      0.00%      0.00% |           4     14.29%     14.29% |           0      0.00%     14.29% |          18     64.29%     78.57% |           0      0.00%     78.57% |           6     21.43%    100.00% |           0      0.00%    100.00% |           0      0.00%    100.00% (Unspecified)
system.caches.L2Cache_Controller.MT_MB.L1_GETX::total           28                       (Unspecified)
system.caches.L2Cache_Controller.MT_MB.Exclusive_Unblock |     1399364     12.52%     12.52% |     1399988     12.52%     25.04% |     1390936     12.44%     37.48% |     1411483     12.63%     50.11% |     1392550     12.46%     62.57% |     1400262     12.53%     75.09% |     1386372     12.40%     87.50% |     1397768     12.50%    100.00% (Unspecified)
system.caches.L2Cache_Controller.MT_MB.Exclusive_Unblock::total     11178723                       (Unspecified)
system.caches.L2Cache_Controller.MT_IIB.L1_GETS |          86     13.72%     13.72% |          70     11.16%     24.88% |          36      5.74%     30.62% |          10      1.59%     32.22% |           6      0.96%     33.17% |          19      3.03%     36.20% |         356     56.78%     92.98% |          44      7.02%    100.00% (Unspecified)
system.caches.L2Cache_Controller.MT_IIB.L1_GETS::total          627                       (Unspecified)
system.caches.L2Cache_Controller.MT_IIB.L1_PUTX |           4     16.67%     16.67% |           3     12.50%     29.17% |           3     12.50%     41.67% |           2      8.33%     50.00% |           4     16.67%     66.67% |           1      4.17%     70.83% |           4     16.67%     87.50% |           3     12.50%    100.00% (Unspecified)
system.caches.L2Cache_Controller.MT_IIB.L1_PUTX::total           24                       (Unspecified)
system.caches.L2Cache_Controller.MT_IIB.WB_Data |          91      0.63%      0.63% |        7003     48.60%     49.23% |          28      0.19%     49.42% |          24      0.17%     49.59% |          25      0.17%     49.76% |        7002     48.59%     98.36% |         213      1.48%     99.83% |          24      0.17%    100.00% (Unspecified)
system.caches.L2Cache_Controller.MT_IIB.WB_Data::total        14410                       (Unspecified)
system.caches.L2Cache_Controller.MT_IIB.WB_Data_clean |      217396     12.87%     12.87% |      209993     12.43%     25.30% |      208523     12.34%     37.65% |      212855     12.60%     50.25% |      210504     12.46%     62.71% |      209926     12.43%     75.14% |      209704     12.41%     87.55% |      210285     12.45%    100.00% (Unspecified)
system.caches.L2Cache_Controller.MT_IIB.WB_Data_clean::total      1689186                       (Unspecified)
system.caches.L2Cache_Controller.MT_IIB.Unblock |          26     10.97%     10.97% |          33     13.92%     24.89% |          42     17.72%     42.62% |          27     11.39%     54.01% |          24     10.13%     64.14% |          29     12.24%     76.37% |          28     11.81%     88.19% |          28     11.81%    100.00% (Unspecified)
system.caches.L2Cache_Controller.MT_IIB.Unblock::total          237                       (Unspecified)
system.caches.L2Cache_Controller.MT_IB.WB_Data |           0      0.00%      0.00% |           4     50.00%     50.00% |           0      0.00%     50.00% |           0      0.00%     50.00% |           0      0.00%     50.00% |           4     50.00%    100.00% |           0      0.00%    100.00% |           0      0.00%    100.00% (Unspecified)
system.caches.L2Cache_Controller.MT_IB.WB_Data::total            8                       (Unspecified)
system.caches.L2Cache_Controller.MT_IB.WB_Data_clean |          26     11.35%     11.35% |          29     12.66%     24.02% |          42     18.34%     42.36% |          27     11.79%     54.15% |          24     10.48%     64.63% |          25     10.92%     75.55% |          28     12.23%     87.77% |          28     12.23%    100.00% (Unspecified)
system.caches.L2Cache_Controller.MT_IB.WB_Data_clean::total          229                       (Unspecified)
system.caches.L2Cache_Controller.MT_SB.L1_GETS |          18     24.32%     24.32% |          21     28.38%     52.70% |           7      9.46%     62.16% |           4      5.41%     67.57% |           3      4.05%     71.62% |           5      6.76%     78.38% |           9     12.16%     90.54% |           7      9.46%    100.00% (Unspecified)
system.caches.L2Cache_Controller.MT_SB.L1_GETS::total           74                       (Unspecified)
system.caches.L2Cache_Controller.MT_SB.L1_UPGRADE |           0      0.00%      0.00% |           2      3.12%      3.12% |           0      0.00%      3.12% |           0      0.00%      3.12% |           0      0.00%      3.12% |           5      7.81%     10.94% |          57     89.06%    100.00% |           0      0.00%    100.00% (Unspecified)
system.caches.L2Cache_Controller.MT_SB.L1_UPGRADE::total           64                       (Unspecified)
system.caches.L2Cache_Controller.MT_SB.Unblock |      217487     12.77%     12.77% |      216996     12.74%     25.50% |      208551     12.24%     37.75% |      212879     12.50%     50.24% |      210529     12.36%     62.60% |      216928     12.73%     75.33% |      209917     12.32%     87.65% |      210309     12.35%    100.00% (Unspecified)
system.caches.L2Cache_Controller.MT_SB.Unblock::total      1703596                       (Unspecified)
system.caches.RequestType.LD.latency_hist_seqr::bucket_size          512                       (Unspecified)
system.caches.RequestType.LD.latency_hist_seqr::max_bucket         5119                       (Unspecified)
system.caches.RequestType.LD.latency_hist_seqr::samples     56231558                       (Unspecified)
system.caches.RequestType.LD.latency_hist_seqr::mean    92.852797                       (Unspecified)
system.caches.RequestType.LD.latency_hist_seqr::gmean     6.234729                       (Unspecified)
system.caches.RequestType.LD.latency_hist_seqr::stdev   236.138445                       (Unspecified)
system.caches.RequestType.LD.latency_hist_seqr |    52022281     92.51%     92.51% |     3870991      6.88%     99.40% |      201559      0.36%     99.76% |       11713      0.02%     99.78% |       78661      0.14%     99.92% |       43404      0.08%     99.99% |        2748      0.00%    100.00% |         183      0.00%    100.00% |          16      0.00%    100.00% |           2      0.00%    100.00% (Unspecified)
system.caches.RequestType.LD.latency_hist_seqr::total     56231558                       (Unspecified)
system.caches.RequestType.LD.hit_latency_hist_seqr::bucket_size            1                       (Unspecified)
system.caches.RequestType.LD.hit_latency_hist_seqr::max_bucket            9                       (Unspecified)
system.caches.RequestType.LD.hit_latency_hist_seqr::samples     31720354                       (Unspecified)
system.caches.RequestType.LD.hit_latency_hist_seqr::mean     1.095573                       (Unspecified)
system.caches.RequestType.LD.hit_latency_hist_seqr::gmean     1.054828                       (Unspecified)
system.caches.RequestType.LD.hit_latency_hist_seqr::stdev     0.441586                       (Unspecified)
system.caches.RequestType.LD.hit_latency_hist_seqr |           0      0.00%      0.00% |    29921968     94.33%     94.33% |      976832      3.08%     97.41% |      485516      1.53%     98.94% |      261605      0.82%     99.77% |       73222      0.23%    100.00% |        1211      0.00%    100.00% |           0      0.00%    100.00% |           0      0.00%    100.00% |           0      0.00%    100.00% (Unspecified)
system.caches.RequestType.LD.hit_latency_hist_seqr::total     31720354                       (Unspecified)
system.caches.RequestType.LD.miss_latency_hist_seqr::bucket_size          512                       (Unspecified)
system.caches.RequestType.LD.miss_latency_hist_seqr::max_bucket         5119                       (Unspecified)
system.caches.RequestType.LD.miss_latency_hist_seqr::samples     24511204                       (Unspecified)
system.caches.RequestType.LD.miss_latency_hist_seqr::mean   211.597335                       (Unspecified)
system.caches.RequestType.LD.miss_latency_hist_seqr::gmean    62.144752                       (Unspecified)
system.caches.RequestType.LD.miss_latency_hist_seqr::stdev   320.822201                       (Unspecified)
system.caches.RequestType.LD.miss_latency_hist_seqr |    20301927     82.83%     82.83% |     3870991     15.79%     98.62% |      201559      0.82%     99.44% |       11713      0.05%     99.49% |       78661      0.32%     99.81% |       43404      0.18%     99.99% |        2748      0.01%    100.00% |         183      0.00%    100.00% |          16      0.00%    100.00% |           2      0.00%    100.00% (Unspecified)
system.caches.RequestType.LD.miss_latency_hist_seqr::total     24511204                       (Unspecified)
system.caches.RequestType.ST.latency_hist_seqr::bucket_size          512                       (Unspecified)
system.caches.RequestType.ST.latency_hist_seqr::max_bucket         5119                       (Unspecified)
system.caches.RequestType.ST.latency_hist_seqr::samples      1034219                       (Unspecified)
system.caches.RequestType.ST.latency_hist_seqr::mean     3.662491                       (Unspecified)
system.caches.RequestType.ST.latency_hist_seqr::gmean     1.103138                       (Unspecified)
system.caches.RequestType.ST.latency_hist_seqr::stdev    46.105902                       (Unspecified)
system.caches.RequestType.ST.latency_hist_seqr |     1032597     99.84%     99.84% |        1026      0.10%     99.94% |         443      0.04%     99.99% |          93      0.01%     99.99% |          36      0.00%    100.00% |          16      0.00%    100.00% |           8      0.00%    100.00% |           0      0.00%    100.00% |           0      0.00%    100.00% |           0      0.00%    100.00% (Unspecified)
system.caches.RequestType.ST.latency_hist_seqr::total      1034219                       (Unspecified)
system.caches.RequestType.ST.hit_latency_hist_seqr::bucket_size          512                       (Unspecified)
system.caches.RequestType.ST.hit_latency_hist_seqr::max_bucket         5119                       (Unspecified)
system.caches.RequestType.ST.hit_latency_hist_seqr::samples      1014591                       (Unspecified)
system.caches.RequestType.ST.hit_latency_hist_seqr::mean     1.173845                       (Unspecified)
system.caches.RequestType.ST.hit_latency_hist_seqr::gmean     1.030991                       (Unspecified)
system.caches.RequestType.ST.hit_latency_hist_seqr::stdev    13.721377                       (Unspecified)
system.caches.RequestType.ST.hit_latency_hist_seqr |     1014493     99.99%     99.99% |          39      0.00%     99.99% |          21      0.00%    100.00% |          34      0.00%    100.00% |           1      0.00%    100.00% |           1      0.00%    100.00% |           2      0.00%    100.00% |           0      0.00%    100.00% |           0      0.00%    100.00% |           0      0.00%    100.00% (Unspecified)
system.caches.RequestType.ST.hit_latency_hist_seqr::total      1014591                       (Unspecified)
system.caches.RequestType.ST.miss_latency_hist_seqr::bucket_size          512                       (Unspecified)
system.caches.RequestType.ST.miss_latency_hist_seqr::max_bucket         5119                       (Unspecified)
system.caches.RequestType.ST.miss_latency_hist_seqr::samples        19628                       (Unspecified)
system.caches.RequestType.ST.miss_latency_hist_seqr::mean   132.303087                       (Unspecified)
system.caches.RequestType.ST.miss_latency_hist_seqr::gmean    36.395754                       (Unspecified)
system.caches.RequestType.ST.miss_latency_hist_seqr::stdev   292.252702                       (Unspecified)
system.caches.RequestType.ST.miss_latency_hist_seqr |       18104     92.24%     92.24% |         987      5.03%     97.26% |         422      2.15%     99.41% |          59      0.30%     99.71% |          35      0.18%     99.89% |          15      0.08%     99.97% |           6      0.03%    100.00% |           0      0.00%    100.00% |           0      0.00%    100.00% |           0      0.00%    100.00% (Unspecified)
system.caches.RequestType.ST.miss_latency_hist_seqr::total        19628                       (Unspecified)
system.caches.RequestType.IFETCH.latency_hist_seqr::bucket_size          512                       (Unspecified)
system.caches.RequestType.IFETCH.latency_hist_seqr::max_bucket         5119                       (Unspecified)
system.caches.RequestType.IFETCH.latency_hist_seqr::samples      4869235                       (Unspecified)
system.caches.RequestType.IFETCH.latency_hist_seqr::mean     2.370410                       (Unspecified)
system.caches.RequestType.IFETCH.latency_hist_seqr::gmean     1.044516                       (Unspecified)
system.caches.RequestType.IFETCH.latency_hist_seqr::stdev    21.732734                       (Unspecified)
[...]
system.o3Cpu7.iew.squashCycles                 135526                       # Number of cycles IEW is squashing (Cycle)
system.o3Cpu7.iew.blockCycles                16646436                       # Number of cycles IEW is blocking (Cycle)
system.o3Cpu7.iew.unblockCycles              24128345                       # Number of cycles IEW is unblocking (Cycle)
system.o3Cpu7.iew.dispatchedInsts            38999298                       # Number of instructions dispatched to IQ (Count)
system.o3Cpu7.iew.dispSquashedInsts             12861                       # Number of squashed instructions skipped by dispatch (Count)
system.o3Cpu7.iew.dispLoadInsts               7494368                       # Number of dispatched load instructions (Count)
system.o3Cpu7.iew.dispStoreInsts               209863                       # Number of dispatched store instructions (Count)
system.o3Cpu7.iew.dispNonSpecInsts               3180                       # Number of dispatched non-speculative instructions (Count)
system.o3Cpu7.iew.iqFullEvents                  61735                       # Number of times the IQ has become full, causing a stall (Count)
system.o3Cpu7.iew.lsqFullEvents              24008964                       # Number of times the LSQ has become full, causing a stall (Count)
system.o3Cpu7.iew.memOrderViolationEvents         6238                       # Number of memory order violations (Count)
system.o3Cpu7.iew.predictedTakenIncorrect        93159                       # Number of branches that were predicted taken incorrectly (Count)
system.o3Cpu7.iew.predictedNotTakenIncorrect        42771                       # Number of branches that were predicted not taken incorrectly (Count)
system.o3Cpu7.iew.branchMispredicts            135930                       # Number of branch mispredicts detected at execute (Count)
system.o3Cpu7.iew.instsToCommit              37138454                       # Cumulative count of insts sent to commit (Count)
system.o3Cpu7.iew.writebackCount             37088134                       # Cumulative count of insts written-back (Count)
system.o3Cpu7.iew.producerInst               30877611                       # Number of instructions producing a value (Count)
system.o3Cpu7.iew.consumerInst               42521280                       # Number of instructions consuming a value (Count)
system.o3Cpu7.iew.wbRate                     0.224093                       # Insts written-back per cycle ((Count/Cycle))
system.o3Cpu7.iew.wbFanout                   0.726168                       # Average fanout of values written-back ((Count/Count))
system.o3Cpu7.interrupts.clk_domain.clock         3200                       # Clock period in ticks (Tick)
system.o3Cpu7.lsq0.forwLoads                     7103                       # Number of loads that had data forwarded from stores (Count)
system.o3Cpu7.lsq0.squashedLoads               751214                       # Number of loads squashed (Count)
system.o3Cpu7.lsq0.ignoredResponses                 3                       # Number of memory responses ignored because the instruction is squashed (Count)
system.o3Cpu7.lsq0.memOrderViolation             6238                       # Number of memory ordering violations (Count)
system.o3Cpu7.lsq0.squashedStores               75854                       # Number of stores squashed (Count)
system.o3Cpu7.lsq0.rescheduledLoads                32                       # Number of loads that were rescheduled (Count)
system.o3Cpu7.lsq0.blockedByCache               84879                       # Number of times an access to memory failed due to the cache being blocked (Count)
system.o3Cpu7.lsq0.loadToUse::samples         6743122                       # Distribution of cycle latency between the first time a load is issued and its completion (Unspecified)
system.o3Cpu7.lsq0.loadToUse::mean         185.400647                       # Distribution of cycle latency between the first time a load is issued and its completion (Unspecified)
system.o3Cpu7.lsq0.loadToUse::stdev        293.874104                       # Distribution of cycle latency between the first time a load is issued and its completion (Unspecified)
system.o3Cpu7.lsq0.loadToUse::0-9             2139953     31.74%     31.74% # Distribution of cycle latency between the first time a load is issued and its completion (Unspecified)
system.o3Cpu7.lsq0.loadToUse::10-19            669975      9.94%     41.67% # Distribution of cycle latency between the first time a load is issued and its completion (Unspecified)
system.o3Cpu7.lsq0.loadToUse::20-29            602975      8.94%     50.61% # Distribution of cycle latency between the first time a load is issued and its completion (Unspecified)
system.o3Cpu7.lsq0.loadToUse::30-39            336594      4.99%     55.60% # Distribution of cycle latency between the first time a load is issued and its completion (Unspecified)
system.o3Cpu7.lsq0.loadToUse::40-49            238058      3.53%     59.14% # Distribution of cycle latency between the first time a load is issued and its completion (Unspecified)
system.o3Cpu7.lsq0.loadToUse::50-59            160098      2.37%     61.51% # Distribution of cycle latency between the first time a load is issued and its completion (Unspecified)
system.o3Cpu7.lsq0.loadToUse::60-69             99224      1.47%     62.98% # Distribution of cycle latency between the first time a load is issued and its completion (Unspecified)
system.o3Cpu7.lsq0.loadToUse::70-79             55920      0.83%     63.81% # Distribution of cycle latency between the first time a load is issued and its completion (Unspecified)
system.o3Cpu7.lsq0.loadToUse::80-89             42061      0.62%     64.43% # Distribution of cycle latency between the first time a load is issued and its completion (Unspecified)
system.o3Cpu7.lsq0.loadToUse::90-99             39481      0.59%     65.02% # Distribution of cycle latency between the first time a load is issued and its completion (Unspecified)
system.o3Cpu7.lsq0.loadToUse::100-109           33411      0.50%     65.51% # Distribution of cycle latency between the first time a load is issued and its completion (Unspecified)
system.o3Cpu7.lsq0.loadToUse::110-119           36615      0.54%     66.06% # Distribution of cycle latency between the first time a load is issued and its completion (Unspecified)
system.o3Cpu7.lsq0.loadToUse::120-129           26291      0.39%     66.45% # Distribution of cycle latency between the first time a load is issued and its completion (Unspecified)
system.o3Cpu7.lsq0.loadToUse::130-139           26979      0.40%     66.85% # Distribution of cycle latency between the first time a load is issued and its completion (Unspecified)
system.o3Cpu7.lsq0.loadToUse::140-149           25746      0.38%     67.23% # Distribution of cycle latency between the first time a load is issued and its completion (Unspecified)
system.o3Cpu7.lsq0.loadToUse::150-159           21964      0.33%     67.56% # Distribution of cycle latency between the first time a load is issued and its completion (Unspecified)
system.o3Cpu7.lsq0.loadToUse::160-169           24665      0.37%     67.92% # Distribution of cycle latency between the first time a load is issued and its completion (Unspecified)
system.o3Cpu7.lsq0.loadToUse::170-179           19411      0.29%     68.21% # Distribution of cycle latency between the first time a load is issued and its completion (Unspecified)
system.o3Cpu7.lsq0.loadToUse::180-189           20636      0.31%     68.52% # Distribution of cycle latency between the first time a load is issued and its completion (Unspecified)
system.o3Cpu7.lsq0.loadToUse::190-199           19468      0.29%     68.80% # Distribution of cycle latency between the first time a load is issued and its completion (Unspecified)
system.o3Cpu7.lsq0.loadToUse::200-209           19689      0.29%     69.10% # Distribution of cycle latency between the first time a load is issued and its completion (Unspecified)
system.o3Cpu7.lsq0.loadToUse::210-219           21149      0.31%     69.41% # Distribution of cycle latency between the first time a load is issued and its completion (Unspecified)
system.o3Cpu7.lsq0.loadToUse::220-229           19029      0.28%     69.69% # Distribution of cycle latency between the first time a load is issued and its completion (Unspecified)
system.o3Cpu7.lsq0.loadToUse::230-239           17955      0.27%     69.96% # Distribution of cycle latency between the first time a load is issued and its completion (Unspecified)
system.o3Cpu7.lsq0.loadToUse::240-249           17543      0.26%     70.22% # Distribution of cycle latency between the first time a load is issued and its completion (Unspecified)
system.o3Cpu7.lsq0.loadToUse::250-259           17674      0.26%     70.48% # Distribution of cycle latency between the first time a load is issued and its completion (Unspecified)
system.o3Cpu7.lsq0.loadToUse::260-269           16569      0.25%     70.73% # Distribution of cycle latency between the first time a load is issued and its completion (Unspecified)
system.o3Cpu7.lsq0.loadToUse::270-279           16243      0.24%     70.97% # Distribution of cycle latency between the first time a load is issued and its completion (Unspecified)
system.o3Cpu7.lsq0.loadToUse::280-289           15591      0.23%     71.20% # Distribution of cycle latency between the first time a load is issued and its completion (Unspecified)
system.o3Cpu7.lsq0.loadToUse::290-299           16632      0.25%     71.44% # Distribution of cycle latency between the first time a load is issued and its completion (Unspecified)
system.o3Cpu7.lsq0.loadToUse::overflows       1925523     28.56%    100.00% # Distribution of cycle latency between the first time a load is issued and its completion (Unspecified)
system.o3Cpu7.lsq0.loadToUse::min_value             2                       # Distribution of cycle latency between the first time a load is issued and its completion (Unspecified)
system.o3Cpu7.lsq0.loadToUse::max_value          4173                       # Distribution of cycle latency between the first time a load is issued and its completion (Unspecified)
system.o3Cpu7.lsq0.loadToUse::total           6743122                       # Distribution of cycle latency between the first time a load is issued and its completion (Unspecified)
system.o3Cpu7.mmu.dtb.rdAccesses              7772988                       # TLB accesses on read requests (Count)
system.o3Cpu7.mmu.dtb.wrAccesses               161963                       # TLB accesses on write requests (Count)
system.o3Cpu7.mmu.dtb.rdMisses                 424684                       # TLB misses on read requests (Count)
system.o3Cpu7.mmu.dtb.wrMisses                  10670                       # TLB misses on write requests (Count)
system.o3Cpu7.mmu.dtb.walker.power_state.pwrStateResidencyTicks::UNDEFINED  34113045200                       # Cumulative time (in ticks) in various power states (Tick)
system.o3Cpu7.mmu.itb.rdAccesses                    0                       # TLB accesses on read requests (Count)
system.o3Cpu7.mmu.itb.wrAccesses               630642                       # TLB accesses on write requests (Count)
system.o3Cpu7.mmu.itb.rdMisses                      0                       # TLB misses on read requests (Count)
system.o3Cpu7.mmu.itb.wrMisses                    193                       # TLB misses on write requests (Count)
system.o3Cpu7.mmu.itb.walker.power_state.pwrStateResidencyTicks::UNDEFINED  34113045200                       # Cumulative time (in ticks) in various power states (Tick)
system.o3Cpu7.power_state.pwrStateResidencyTicks::OFF  34113045200                       # Cumulative time (in ticks) in various power states (Tick)
system.o3Cpu7.rename.squashCycles              135526                       # Number of cycles rename is squashing (Cycle)
system.o3Cpu7.rename.idleCycles               1897861                       # Number of cycles rename is idle (Cycle)
system.o3Cpu7.rename.blockCycles             60769024                       # Number of cycles rename is blocking (Cycle)
system.o3Cpu7.rename.serializeStallCycles       374432                       # count of cycles rename stalled for serializing inst (Cycle)
system.o3Cpu7.rename.runCycles                4939002                       # Number of cycles rename is running (Cycle)
system.o3Cpu7.rename.unblockCycles           96906173                       # Number of cycles rename is unblocking (Cycle)
system.o3Cpu7.rename.renamedInsts            40002838                       # Number of instructions processed by rename (Count)
system.o3Cpu7.rename.ROBFullEvents            1200035                       # Number of times rename has blocked due to ROB full (Count)
system.o3Cpu7.rename.IQFullEvents             4229917                       # Number of times rename has blocked due to IQ full (Count)
system.o3Cpu7.rename.LQFullEvents            95330698                       # Number of times rename has blocked due to LQ full (Count)
system.o3Cpu7.rename.SQFullEvents               41296                       # Number of times rename has blocked due to SQ full (Count)
system.o3Cpu7.rename.renamedOperands         73469599                       # Number of destination operands rename has renamed (Count)
system.o3Cpu7.rename.lookups                129244589                       # Number of register rename lookups that rename has made (Count)
system.o3Cpu7.rename.intLookups              38652186                       # Number of integer rename lookups (Count)
system.o3Cpu7.rename.fpLookups               14357977                       # Number of floating rename lookups (Count)
system.o3Cpu7.rename.committedMaps           64305204                       # Number of HB maps that are committed (Count)
system.o3Cpu7.rename.undoneMaps               9164087                       # Number of HB maps that are undone due to squashing (Count)
system.o3Cpu7.rename.serializing                 1533                       # count of serializing insts renamed (Count)
system.o3Cpu7.rename.tempSerializing             1578                       # count of temporary serializing insts renamed (Count)
system.o3Cpu7.rename.skidInsts                8673169                       # count of insts added to the skid buffer (Count)
system.o3Cpu7.rob.reads                     199652956                       # The number of ROB reads (Count)
system.o3Cpu7.rob.writes                     78609026                       # The number of ROB writes (Count)
system.o3Cpu7.thread_0.numInsts              17723584                       # Number of Instructions committed (Count)
system.o3Cpu7.thread_0.numOps                34669637                       # Number of Ops committed (Count)
system.o3Cpu7.thread_0.numMemRefs                   0                       # Number of Memory References (Count)
system.pc.bad_addr.power_state.pwrStateResidencyTicks::UNDEFINED  34113045200                       # Cumulative time (in ticks) in various power states (Tick)
system.pc.com_1.power_state.pwrStateResidencyTicks::UNDEFINED  34113045200                       # Cumulative time (in ticks) in various power states (Tick)
system.pc.default_bus.power_state.pwrStateResidencyTicks::UNDEFINED  34113045200                       # Cumulative time (in ticks) in various power states (Tick)
system.pc.empty_isa.power_state.pwrStateResidencyTicks::UNDEFINED  34113045200                       # Cumulative time (in ticks) in various power states (Tick)
system.pc.fake_com_2.power_state.pwrStateResidencyTicks::UNDEFINED  34113045200                       # Cumulative time (in ticks) in various power states (Tick)
system.pc.fake_com_3.power_state.pwrStateResidencyTicks::UNDEFINED  34113045200                       # Cumulative time (in ticks) in various power states (Tick)
system.pc.fake_com_4.power_state.pwrStateResidencyTicks::UNDEFINED  34113045200                       # Cumulative time (in ticks) in various power states (Tick)
system.pc.fake_floppy.power_state.pwrStateResidencyTicks::UNDEFINED  34113045200                       # Cumulative time (in ticks) in various power states (Tick)
system.pc.pci_host.power_state.pwrStateResidencyTicks::UNDEFINED  34113045200                       # Cumulative time (in ticks) in various power states (Tick)
system.pc.south_bridge.cmos.power_state.pwrStateResidencyTicks::UNDEFINED  34113045200                       # Cumulative time (in ticks) in various power states (Tick)
system.pc.south_bridge.dma1.power_state.pwrStateResidencyTicks::UNDEFINED  34113045200                       # Cumulative time (in ticks) in various power states (Tick)
system.pc.south_bridge.ide.disks0.IdeDisk.dmaReadFullPages            0                       # Number of full page size DMA reads (not PRD). (Count)
system.pc.south_bridge.ide.disks0.IdeDisk.dmaReadBytes            0                       # Number of bytes transfered via DMA reads (not PRD). (Byte)
system.pc.south_bridge.ide.disks0.IdeDisk.dmaReadTxs            0                       # Number of DMA read transactions (not PRD). (Count)
system.pc.south_bridge.ide.disks0.IdeDisk.dmaWriteFullPages            0                       # Number of full page size DMA writes. (Count)
system.pc.south_bridge.ide.disks0.IdeDisk.dmaWriteBytes            0                       # Number of bytes transfered via DMA writes. (Byte)
system.pc.south_bridge.ide.disks0.IdeDisk.dmaWriteTxs            0                       # Number of DMA write transactions. (Count)
system.pc.south_bridge.ide.disks1.IdeDisk.dmaReadFullPages            0                       # Number of full page size DMA reads (not PRD). (Count)
system.pc.south_bridge.ide.disks1.IdeDisk.dmaReadBytes            0                       # Number of bytes transfered via DMA reads (not PRD). (Byte)
system.pc.south_bridge.ide.disks1.IdeDisk.dmaReadTxs            0                       # Number of DMA read transactions (not PRD). (Count)
system.pc.south_bridge.ide.disks1.IdeDisk.dmaWriteFullPages            0                       # Number of full page size DMA writes. (Count)
system.pc.south_bridge.ide.disks1.IdeDisk.dmaWriteBytes            0                       # Number of bytes transfered via DMA writes. (Byte)
system.pc.south_bridge.ide.disks1.IdeDisk.dmaWriteTxs            0                       # Number of DMA write transactions. (Count)
system.pc.south_bridge.ide.power_state.pwrStateResidencyTicks::UNDEFINED  34113045200                       # Cumulative time (in ticks) in various power states (Tick)
system.pc.south_bridge.io_apic.power_state.pwrStateResidencyTicks::UNDEFINED  34113045200                       # Cumulative time (in ticks) in various power states (Tick)
system.pc.south_bridge.keyboard.power_state.pwrStateResidencyTicks::UNDEFINED  34113045200                       # Cumulative time (in ticks) in various power states (Tick)
system.pc.south_bridge.pic1.power_state.pwrStateResidencyTicks::UNDEFINED  34113045200                       # Cumulative time (in ticks) in various power states (Tick)
system.pc.south_bridge.pic2.power_state.pwrStateResidencyTicks::UNDEFINED  34113045200                       # Cumulative time (in ticks) in various power states (Tick)
system.pc.south_bridge.pit.power_state.pwrStateResidencyTicks::UNDEFINED  34113045200                       # Cumulative time (in ticks) in various power states (Tick)
system.pc.south_bridge.speaker.power_state.pwrStateResidencyTicks::UNDEFINED  34113045200                       # Cumulative time (in ticks) in various power states (Tick)
system.workload.inst.arm                            0                       # number of arm instructions executed (Count)
system.workload.inst.quiesce                        0                       # number of quiesce instructions executed (Count)

---------- End Simulation Statistics   ----------
