
---------- Begin Simulation Statistics ----------
simSeconds                                   0.062848                       # Number of seconds simulated (Second)
simTicks                                  62847854240                       # Number of ticks simulated (Tick)
finalTick                                169610496874000                       # Number of ticks from beginning of simulation (restored from checkpoints and never reset) (Tick)
simFreq                                  1000000000000                       # The number of ticks per simulated second ((Tick/Second))
hostSeconds                                   4280.26                       # Real time elapsed on the host (Second)
hostTickRate                                 14683199                       # The number of ticks simulated per host second (ticks/s) ((Tick/Second))
hostMemory                                   19513012                       # Number of bytes of host memory used (Byte)
simInsts                                    239404779                       # Number of instructions simulated (Count)
simOps                                      425943740                       # Number of ops (including micro ops) simulated (Count)
hostInstRate                                    55932                       # Simulator instruction rate (inst/s) ((Count/Second))
hostOpRate                                      99514                       # Simulator op (including micro ops) rate (op/s) ((Count/Second))
system.caches.delayHistogram::bucket_size           16                       # delay histogram for all message (Unspecified)
system.caches.delayHistogram::max_bucket          159                       # delay histogram for all message (Unspecified)
system.caches.delayHistogram::samples         9627592                       # delay histogram for all message (Unspecified)
system.caches.delayHistogram::mean           1.419260                       # delay histogram for all message (Unspecified)
system.caches.delayHistogram::stdev          3.045062                       # delay histogram for all message (Unspecified)
system.caches.delayHistogram             |     9624685     99.97%     99.97% |        2814      0.03%    100.00% |          92      0.00%    100.00% |           0      0.00%    100.00% |           0      0.00%    100.00% |           0      0.00%    100.00% |           1      0.00%    100.00% |           0      0.00%    100.00% |           0      0.00%    100.00% |           0      0.00%    100.00% # delay histogram for all message (Unspecified)
system.caches.delayHistogram::total           9627592                       # delay histogram for all message (Unspecified)
system.caches.m_outstandReqHistSeqr::bucket_size            2                       (Unspecified)
system.caches.m_outstandReqHistSeqr::max_bucket           19                       (Unspecified)
system.caches.m_outstandReqHistSeqr::samples    185071184                       (Unspecified)
system.caches.m_outstandReqHistSeqr::mean     1.706604                       (Unspecified)
system.caches.m_outstandReqHistSeqr::gmean     1.406191                       (Unspecified)
system.caches.m_outstandReqHistSeqr::stdev     1.601046                       (Unspecified)
system.caches.m_outstandReqHistSeqr      |   119757008     64.71%     64.71% |    54327838     29.36%     94.06% |     5724926      3.09%     97.16% |     1898376      1.03%     98.18% |     1315965      0.71%     98.89% |      806855      0.44%     99.33% |      660038      0.36%     99.69% |      361527      0.20%     99.88% |      218651      0.12%    100.00% |           0      0.00%    100.00% (Unspecified)
system.caches.m_outstandReqHistSeqr::total    185071184                       (Unspecified)
system.caches.m_latencyHistSeqr::bucket_size          512                       (Unspecified)
system.caches.m_latencyHistSeqr::max_bucket         5119                       (Unspecified)
system.caches.m_latencyHistSeqr::samples    187082906                       (Unspecified)
system.caches.m_latencyHistSeqr::mean        1.810803                       (Unspecified)
system.caches.m_latencyHistSeqr::gmean       1.040645                       (Unspecified)
system.caches.m_latencyHistSeqr::stdev      20.475056                       (Unspecified)
system.caches.m_latencyHistSeqr          |   187021893     99.97%     99.97% |       50141      0.03%     99.99% |        6668      0.00%    100.00% |        2561      0.00%    100.00% |         973      0.00%    100.00% |         623      0.00%    100.00% |          46      0.00%    100.00% |           1      0.00%    100.00% |           0      0.00%    100.00% |           0      0.00%    100.00% (Unspecified)
system.caches.m_latencyHistSeqr::total      187082906                       (Unspecified)
system.caches.m_hitLatencyHistSeqr::bucket_size          128                       (Unspecified)
system.caches.m_hitLatencyHistSeqr::max_bucket         1279                       (Unspecified)
system.caches.m_hitLatencyHistSeqr::samples    185290661                       (Unspecified)
system.caches.m_hitLatencyHistSeqr::mean     1.010935                       (Unspecified)
system.caches.m_hitLatencyHistSeqr::gmean     1.007589                       (Unspecified)
system.caches.m_hitLatencyHistSeqr::stdev     0.154027                       (Unspecified)
system.caches.m_hitLatencyHistSeqr       |   185290652    100.00%    100.00% |           3      0.00%    100.00% |           2      0.00%    100.00% |           1      0.00%    100.00% |           1      0.00%    100.00% |           1      0.00%    100.00% |           0      0.00%    100.00% |           1      0.00%    100.00% |           0      0.00%    100.00% |           0      0.00%    100.00% (Unspecified)
system.caches.m_hitLatencyHistSeqr::total    185290661                       (Unspecified)
system.caches.m_missLatencyHistSeqr::bucket_size          512                       (Unspecified)
system.caches.m_missLatencyHistSeqr::max_bucket         5119                       (Unspecified)
system.caches.m_missLatencyHistSeqr::samples      1792245                       (Unspecified)
system.caches.m_missLatencyHistSeqr::mean    84.504900                       (Unspecified)
system.caches.m_missLatencyHistSeqr::gmean    29.285777                       (Unspecified)
system.caches.m_missLatencyHistSeqr::stdev   191.974158                       (Unspecified)
system.caches.m_missLatencyHistSeqr      |     1731235     96.60%     96.60% |       50138      2.80%     99.39% |        6668      0.37%     99.77% |        2561      0.14%     99.91% |         973      0.05%     99.96% |         623      0.03%    100.00% |          46      0.00%    100.00% |           1      0.00%    100.00% |           0      0.00%    100.00% |           0      0.00%    100.00% (Unspecified)
system.caches.m_missLatencyHistSeqr::total      1792245                       (Unspecified)
system.caches.delayVCHist.vnet_0::bucket_size           16                       # delay histogram for vnet_0 (Unspecified)
system.caches.delayVCHist.vnet_0::max_bucket          159                       # delay histogram for vnet_0 (Unspecified)
system.caches.delayVCHist.vnet_0::samples      5311110                       # delay histogram for vnet_0 (Unspecified)
system.caches.delayVCHist.vnet_0::mean       2.174618                       # delay histogram for vnet_0 (Unspecified)
system.caches.delayVCHist.vnet_0::stdev      3.566005                       # delay histogram for vnet_0 (Unspecified)
system.caches.delayVCHist.vnet_0         |     5310040     99.98%     99.98% |        1069      0.02%    100.00% |           0      0.00%    100.00% |           0      0.00%    100.00% |           0      0.00%    100.00% |           0      0.00%    100.00% |           1      0.00%    100.00% |           0      0.00%    100.00% |           0      0.00%    100.00% |           0      0.00%    100.00% # delay histogram for vnet_0 (Unspecified)
system.caches.delayVCHist.vnet_0::total       5311110                       # delay histogram for vnet_0 (Unspecified)
system.caches.delayVCHist.vnet_1::bucket_size            8                       # delay histogram for vnet_1 (Unspecified)
system.caches.delayVCHist.vnet_1::max_bucket           79                       # delay histogram for vnet_1 (Unspecified)
system.caches.delayVCHist.vnet_1::samples      4289105                       # delay histogram for vnet_1 (Unspecified)
system.caches.delayVCHist.vnet_1::mean       0.492963                       # delay histogram for vnet_1 (Unspecified)
system.caches.delayVCHist.vnet_1::stdev      1.868039                       # delay histogram for vnet_1 (Unspecified)
system.caches.delayVCHist.vnet_1         |     4181641     97.49%     97.49% |      105627      2.46%     99.96% |        1410      0.03%     99.99% |         335      0.01%    100.00% |          90      0.00%    100.00% |           2      0.00%    100.00% |           0      0.00%    100.00% |           0      0.00%    100.00% |           0      0.00%    100.00% |           0      0.00%    100.00% # delay histogram for vnet_1 (Unspecified)
system.caches.delayVCHist.vnet_1::total       4289105                       # delay histogram for vnet_1 (Unspecified)
system.caches.delayVCHist.vnet_2::bucket_size            1                       # delay histogram for vnet_2 (Unspecified)
system.caches.delayVCHist.vnet_2::max_bucket            9                       # delay histogram for vnet_2 (Unspecified)
system.caches.delayVCHist.vnet_2::samples        27377                       # delay histogram for vnet_2 (Unspecified)
system.caches.delayVCHist.vnet_2::mean       0.001680                       # delay histogram for vnet_2 (Unspecified)
system.caches.delayVCHist.vnet_2::stdev      0.057946                       # delay histogram for vnet_2 (Unspecified)
system.caches.delayVCHist.vnet_2         |       27354     99.92%     99.92% |           0      0.00%     99.92% |          23      0.08%    100.00% |           0      0.00%    100.00% |           0      0.00%    100.00% |           0      0.00%    100.00% |           0      0.00%    100.00% |           0      0.00%    100.00% |           0      0.00%    100.00% |           0      0.00%    100.00% # delay histogram for vnet_2 (Unspecified)
system.caches.delayVCHist.vnet_2::total         27377                       # delay histogram for vnet_2 (Unspecified)
system.caches.L1Cache_Controller.Load    |       41607      0.04%      0.04% |       29285      0.03%      0.07% |       28199      0.03%      0.10% |    94664061     99.78%     99.88% |       27850      0.03%     99.91% |       27904      0.03%     99.94% |       28210      0.03%     99.97% |       27851      0.03%    100.00% (Unspecified)
system.caches.L1Cache_Controller.Load::total     94874967                       (Unspecified)
system.caches.L1Cache_Controller.Ifetch  |       30955      0.04%      0.04% |       24307      0.03%      0.08% |       24569      0.03%      0.11% |    71033123     99.75%     99.86% |       24494      0.03%     99.90% |       24543      0.03%     99.93% |       24636      0.03%     99.97% |       24531      0.03%    100.00% (Unspecified)
system.caches.L1Cache_Controller.Ifetch::total     71211158                       (Unspecified)
system.caches.L1Cache_Controller.Store   |       36228      0.17%      0.17% |       22306      0.11%      0.28% |       22446      0.11%      0.39% |    20826250     99.19%     99.57% |       22380      0.11%     99.68% |       22375      0.11%     99.79% |       22437      0.11%     99.89% |       22367      0.11%    100.00% (Unspecified)
system.caches.L1Cache_Controller.Store::total     20996789                       (Unspecified)
system.caches.L1Cache_Controller.Inv     |        9334     49.05%     49.05% |        1304      6.85%     55.90% |        1463      7.69%     63.59% |        1122      5.90%     69.48% |        1423      7.48%     76.96% |        1445      7.59%     84.55% |        1456      7.65%     92.20% |        1484      7.80%    100.00% (Unspecified)
system.caches.L1Cache_Controller.Inv::total        19031                       (Unspecified)
system.caches.L1Cache_Controller.L1_Replacement |        2599      0.15%      0.15% |        1550      0.09%      0.23% |        1533      0.09%      0.32% |     1761647     99.33%     99.66% |        1528      0.09%     99.74% |        1523      0.09%     99.83% |        1534      0.09%     99.91% |        1529      0.09%    100.00% (Unspecified)
system.caches.L1Cache_Controller.L1_Replacement::total      1773443                       (Unspecified)
system.caches.L1Cache_Controller.Fwd_GETX |           0      0.00%      0.00% |           0      0.00%      0.00% |           2    100.00%    100.00% |           0      0.00%    100.00% |           0      0.00%    100.00% |           0      0.00%    100.00% |           0      0.00%    100.00% |           0      0.00%    100.00% (Unspecified)
system.caches.L1Cache_Controller.Fwd_GETX::total            2                       (Unspecified)
system.caches.L1Cache_Controller.Fwd_GETS |        7923     94.95%     94.95% |          56      0.67%     95.63% |          62      0.74%     96.37% |          70      0.84%     97.21% |          50      0.60%     97.81% |          62      0.74%     98.55% |          63      0.76%     99.30% |          58      0.70%    100.00% (Unspecified)
system.caches.L1Cache_Controller.Fwd_GETS::total         8344                       (Unspecified)
system.caches.L1Cache_Controller.Data    |           3     15.79%     15.79% |           0      0.00%     15.79% |           0      0.00%     15.79% |          15     78.95%     94.74% |           0      0.00%     94.74% |           0      0.00%     94.74% |           0      0.00%     94.74% |           1      5.26%    100.00% (Unspecified)
system.caches.L1Cache_Controller.Data::total           19                       (Unspecified)
system.caches.L1Cache_Controller.Data_Exclusive |         317      0.02%      0.02% |         128      0.01%      0.03% |         227      0.01%      0.04% |     1743794     99.91%     99.95% |         203      0.01%     99.96% |         218      0.01%     99.97% |         222      0.01%     99.99% |         227      0.01%    100.00% (Unspecified)
system.caches.L1Cache_Controller.Data_Exclusive::total      1745336                       (Unspecified)
system.caches.L1Cache_Controller.DataS_fromL1 |         132      1.58%      1.58% |         329      3.94%      5.52% |          71      0.85%      6.38% |        7572     90.75%     97.12% |          80      0.96%     98.08% |          90      1.08%     99.16% |          49      0.59%     99.75% |          21      0.25%    100.00% (Unspecified)
system.caches.L1Cache_Controller.DataS_fromL1::total         8344                       (Unspecified)
system.caches.L1Cache_Controller.Data_all_Acks |        3626     11.92%     11.92% |        2370      7.79%     19.71% |        2686      8.83%     28.55% |       10931     35.94%     64.48% |        2666      8.77%     73.25% |        2659      8.74%     81.99% |        2717      8.93%     90.93% |        2760      9.07%    100.00% (Unspecified)
system.caches.L1Cache_Controller.Data_all_Acks::total        30415                       (Unspecified)
system.caches.L1Cache_Controller.Ack     |        1859     18.36%     18.36% |         116      1.15%     19.51% |         108      1.07%     20.57% |        7611     75.18%     95.75% |         117      1.16%     96.91% |         111      1.10%     98.00% |         102      1.01%     99.01% |         100      0.99%    100.00% (Unspecified)
system.caches.L1Cache_Controller.Ack::total        10124                       (Unspecified)
system.caches.L1Cache_Controller.Ack_all |         303      3.72%      3.72% |          48      0.59%      4.31% |          39      0.48%      4.79% |        7574     92.93%     97.72% |          42      0.52%     98.23% |          42      0.52%     98.75% |          52      0.64%     99.39% |          50      0.61%    100.00% (Unspecified)
system.caches.L1Cache_Controller.Ack_all::total         8150                       (Unspecified)
system.caches.L1Cache_Controller.WB_Ack  |         215      0.01%      0.01% |           1      0.00%      0.01% |           0      0.00%      0.01% |     1753437     99.99%    100.00% |           0      0.00%    100.00% |           0      0.00%    100.00% |           0      0.00%    100.00% |           0      0.00%    100.00% (Unspecified)
system.caches.L1Cache_Controller.WB_Ack::total      1753653                       (Unspecified)
system.caches.L1Cache_Controller.NP.Load |         179      0.01%      0.01% |          90      0.01%      0.02% |          59      0.00%      0.02% |     1757379     99.97%     99.99% |          61      0.00%     99.99% |          53      0.00%     99.99% |          65      0.00%    100.00% |          69      0.00%    100.00% (Unspecified)
system.caches.L1Cache_Controller.NP.Load::total      1757955                       (Unspecified)
system.caches.L1Cache_Controller.NP.Ifetch |        2631     18.57%     18.57% |        1577     11.13%     29.70% |        1586     11.19%     40.89% |        2057     14.52%     55.41% |        1580     11.15%     66.56% |        1578     11.14%     77.70% |        1585     11.19%     88.88% |        1575     11.12%    100.00% (Unspecified)
system.caches.L1Cache_Controller.NP.Ifetch::total        14169                       (Unspecified)
system.caches.L1Cache_Controller.NP.Store |          50      2.10%      2.10% |           0      0.00%      2.10% |           0      0.00%      2.10% |        2326     97.85%     99.96% |           0      0.00%     99.96% |           1      0.04%    100.00% |           0      0.00%    100.00% |           0      0.00%    100.00% (Unspecified)
system.caches.L1Cache_Controller.NP.Store::total         2377                       (Unspecified)
system.caches.L1Cache_Controller.NP.Inv  |          68     12.32%     12.32% |          23      4.17%     16.49% |          12      2.17%     18.66% |         392     71.01%     89.67% |          13      2.36%     92.03% |          13      2.36%     94.38% |          15      2.72%     97.10% |          16      2.90%    100.00% (Unspecified)
system.caches.L1Cache_Controller.NP.Inv::total          552                       (Unspecified)
system.caches.L1Cache_Controller.I.Load  |         394      9.28%      9.28% |         545     12.84%     22.12% |         657     15.48%     37.60% |          36      0.85%     38.45% |         646     15.22%     53.66% |         646     15.22%     68.88% |         658     15.50%     84.38% |         663     15.62%    100.00% (Unspecified)
system.caches.L1Cache_Controller.I.Load::total         4245                       (Unspecified)
system.caches.L1Cache_Controller.I.Ifetch |         646     14.87%     14.87% |         527     12.13%     27.00% |         530     12.20%     39.20% |         514     11.83%     51.04% |         530     12.20%     63.24% |         539     12.41%     75.64% |         529     12.18%     87.82% |         529     12.18%    100.00% (Unspecified)
system.caches.L1Cache_Controller.I.Ifetch::total         4344                       (Unspecified)
system.caches.L1Cache_Controller.I.Store |         178     17.38%     17.38% |          88      8.59%     25.98% |         152     14.84%     40.82% |           0      0.00%     40.82% |         132     12.89%     53.71% |         150     14.65%     68.36% |         151     14.75%     83.11% |         173     16.89%    100.00% (Unspecified)
system.caches.L1Cache_Controller.I.Store::total         1024                       (Unspecified)
system.caches.L1Cache_Controller.I.L1_Replacement |          12      8.11%      8.11% |          18     12.16%     20.27% |           3      2.03%     22.30% |         103     69.59%     91.89% |           3      2.03%     93.92% |           2      1.35%     95.27% |           2      1.35%     96.62% |           5      3.38%    100.00% (Unspecified)
system.caches.L1Cache_Controller.I.L1_Replacement::total          148                       (Unspecified)
system.caches.L1Cache_Controller.S.Load  |        6146      4.20%      4.20% |        8811      6.02%     10.22% |        7076      4.84%     15.06% |       96369     65.86%     80.92% |        6850      4.68%     85.60% |        6877      4.70%     90.31% |        7144      4.88%     95.19% |        7041      4.81%    100.00% (Unspecified)
system.caches.L1Cache_Controller.S.Load::total       146314                       (Unspecified)
system.caches.L1Cache_Controller.S.Ifetch |       27678      0.04%      0.04% |       22203      0.03%      0.07% |       22453      0.03%      0.10% |    71030552     99.77%     99.87% |       22384      0.03%     99.91% |       22426      0.03%     99.94% |       22522      0.03%     99.97% |       22427      0.03%    100.00% (Unspecified)
system.caches.L1Cache_Controller.S.Ifetch::total     71192645                       (Unspecified)
system.caches.L1Cache_Controller.S.Store |         300      3.69%      3.69% |          48      0.59%      4.28% |          39      0.48%      4.76% |        7559     92.97%     97.72% |          42      0.52%     98.24% |          42      0.52%     98.76% |          52      0.64%     99.40% |          49      0.60%    100.00% (Unspecified)
system.caches.L1Cache_Controller.S.Store::total         8131                       (Unspecified)
system.caches.L1Cache_Controller.S.Inv   |        8509     54.44%     54.44% |        1076      6.88%     61.33% |        1087      6.96%     68.28% |         626      4.01%     72.29% |        1086      6.95%     79.24% |        1085      6.94%     86.18% |        1081      6.92%     93.10% |        1079      6.90%    100.00% (Unspecified)
system.caches.L1Cache_Controller.S.Inv::total        15629                       (Unspecified)
system.caches.L1Cache_Controller.S.L1_Replacement |        2372     12.08%     12.08% |        1531      7.79%     19.87% |        1530      7.79%     27.66% |        8107     41.27%     68.93% |        1525      7.76%     76.70% |        1521      7.74%     84.44% |        1532      7.80%     92.24% |        1524      7.76%    100.00% (Unspecified)
system.caches.L1Cache_Controller.S.L1_Replacement::total        19642                       (Unspecified)
system.caches.L1Cache_Controller.E.Load  |        6650      0.06%      0.06% |        5566      0.05%      0.11% |        6017      0.06%      0.17% |    10765309     99.61%     99.78% |        5878      0.05%     99.84% |        5961      0.06%     99.89% |        6055      0.06%     99.95% |        5809      0.05%    100.00% (Unspecified)
system.caches.L1Cache_Controller.E.Load::total     10807245                       (Unspecified)
system.caches.L1Cache_Controller.E.Store |          67      0.00%      0.00% |          36      0.00%      0.01% |          40      0.00%      0.01% |     1429801     99.98%     99.99% |          37      0.00%     99.99% |          43      0.00%     99.99% |          46      0.00%    100.00% |          45      0.00%    100.00% (Unspecified)
system.caches.L1Cache_Controller.E.Store::total      1430115                       (Unspecified)
system.caches.L1Cache_Controller.E.Inv   |         164     15.75%     15.75% |          81      7.78%     23.54% |         164     15.75%     39.29% |           0      0.00%     39.29% |         153     14.70%     53.99% |         146     14.02%     68.01% |         163     15.66%     83.67% |         170     16.33%    100.00% (Unspecified)
system.caches.L1Cache_Controller.E.Inv::total         1041                       (Unspecified)
system.caches.L1Cache_Controller.E.L1_Replacement |           0      0.00%      0.00% |           1      0.00%      0.00% |           0      0.00%      0.00% |      314086    100.00%    100.00% |           0      0.00%    100.00% |           0      0.00%    100.00% |           0      0.00%    100.00% |           0      0.00%    100.00% (Unspecified)
system.caches.L1Cache_Controller.E.L1_Replacement::total       314087                       (Unspecified)
system.caches.L1Cache_Controller.E.Fwd_GETX |           0      0.00%      0.00% |           0      0.00%      0.00% |           2    100.00%    100.00% |           0      0.00%    100.00% |           0      0.00%    100.00% |           0      0.00%    100.00% |           0      0.00%    100.00% |           0      0.00%    100.00% (Unspecified)
system.caches.L1Cache_Controller.E.Fwd_GETX::total            2                       (Unspecified)
system.caches.L1Cache_Controller.E.Fwd_GETS |          57     36.54%     36.54% |           7      4.49%     41.03% |          22     14.10%     55.13% |          12      7.69%     62.82% |          10      6.41%     69.23% |          27     17.31%     86.54% |          11      7.05%     93.59% |          10      6.41%    100.00% (Unspecified)
system.caches.L1Cache_Controller.E.Fwd_GETS::total          156                       (Unspecified)
system.caches.L1Cache_Controller.M.Load  |       28238      0.03%      0.03% |       14273      0.02%      0.05% |       14390      0.02%      0.07% |    82044960     99.86%     99.93% |       14415      0.02%     99.95% |       14367      0.02%     99.97% |       14288      0.02%     99.98% |       14269      0.02%    100.00% (Unspecified)
system.caches.L1Cache_Controller.M.Load::total     82159200                       (Unspecified)
system.caches.L1Cache_Controller.M.Store |       35633      0.18%      0.18% |       22134      0.11%      0.30% |       22215      0.11%      0.41% |    19386564     99.14%     99.55% |       22169      0.11%     99.66% |       22139      0.11%     99.77% |       22188      0.11%     99.89% |       22100      0.11%    100.00% (Unspecified)
system.caches.L1Cache_Controller.M.Store::total     19555142                       (Unspecified)
system.caches.L1Cache_Controller.M.Inv   |         593     32.78%     32.78% |         124      6.85%     39.64% |         200     11.06%     50.69% |         104      5.75%     56.44% |         171      9.45%     65.89% |         201     11.11%     77.00% |         197     10.89%     87.89% |         219     12.11%    100.00% (Unspecified)
system.caches.L1Cache_Controller.M.Inv::total         1809                       (Unspecified)
system.caches.L1Cache_Controller.M.L1_Replacement |         215      0.01%      0.01% |           0      0.00%      0.01% |           0      0.00%      0.01% |     1439351     99.99%    100.00% |           0      0.00%    100.00% |           0      0.00%    100.00% |           0      0.00%    100.00% |           0      0.00%    100.00% (Unspecified)
system.caches.L1Cache_Controller.M.L1_Replacement::total      1439566                       (Unspecified)
system.caches.L1Cache_Controller.M.Fwd_GETS |        7866     96.07%     96.07% |          49      0.60%     96.67% |          40      0.49%     97.15% |          58      0.71%     97.86% |          40      0.49%     98.35% |          35      0.43%     98.78% |          52      0.64%     99.41% |          48      0.59%    100.00% (Unspecified)
system.caches.L1Cache_Controller.M.Fwd_GETS::total         8188                       (Unspecified)
system.caches.L1Cache_Controller.IS.Data_Exclusive |         317      0.02%      0.02% |         128      0.01%      0.03% |         227      0.01%      0.04% |     1743794     99.91%     99.95% |         203      0.01%     99.96% |         218      0.01%     99.97% |         222      0.01%     99.99% |         227      0.01%    100.00% (Unspecified)
system.caches.L1Cache_Controller.IS.Data_Exclusive::total      1745336                       (Unspecified)
system.caches.L1Cache_Controller.IS.DataS_fromL1 |         132      1.58%      1.58% |         329      3.94%      5.52% |          71      0.85%      6.38% |        7572     90.75%     97.12% |          80      0.96%     98.08% |          90      1.08%     99.16% |          49      0.59%     99.75% |          21      0.25%    100.00% (Unspecified)
system.caches.L1Cache_Controller.IS.DataS_fromL1::total         8344                       (Unspecified)
system.caches.L1Cache_Controller.IS.Data_all_Acks |        3401     12.58%     12.58% |        2282      8.44%     21.02% |        2534      9.37%     30.40% |        8620     31.89%     62.28% |        2534      9.37%     71.66% |        2508      9.28%     80.93% |        2566      9.49%     90.43% |        2588      9.57%    100.00% (Unspecified)
system.caches.L1Cache_Controller.IS.Data_all_Acks::total        27033                       (Unspecified)
system.caches.L1Cache_Controller.IM.Data |           3     15.79%     15.79% |           0      0.00%     15.79% |           0      0.00%     15.79% |          15     78.95%     94.74% |           0      0.00%     94.74% |           0      0.00%     94.74% |           0      0.00%     94.74% |           1      5.26%    100.00% (Unspecified)
system.caches.L1Cache_Controller.IM.Data::total           19                       (Unspecified)
system.caches.L1Cache_Controller.IM.Data_all_Acks |         225      6.65%      6.65% |          88      2.60%      9.25% |         152      4.49%     13.75% |        2311     68.33%     82.08% |         132      3.90%     85.98% |         151      4.46%     90.45% |         151      4.46%     94.91% |         172      5.09%    100.00% (Unspecified)
system.caches.L1Cache_Controller.IM.Data_all_Acks::total         3382                       (Unspecified)
system.caches.L1Cache_Controller.SM.Ack  |        1859     18.36%     18.36% |         116      1.15%     19.51% |         108      1.07%     20.57% |        7611     75.18%     95.75% |         117      1.16%     96.91% |         111      1.10%     98.00% |         102      1.01%     99.01% |         100      0.99%    100.00% (Unspecified)
system.caches.L1Cache_Controller.SM.Ack::total        10124                       (Unspecified)
system.caches.L1Cache_Controller.SM.Ack_all |         303      3.72%      3.72% |          48      0.59%      4.31% |          39      0.48%      4.79% |        7574     92.93%     97.72% |          42      0.52%     98.23% |          42      0.52%     98.75% |          52      0.64%     99.39% |          50      0.61%    100.00% (Unspecified)
system.caches.L1Cache_Controller.SM.Ack_all::total         8150                       (Unspecified)
system.caches.L1Cache_Controller.M_I.Load |           0      0.00%      0.00% |           0      0.00%      0.00% |           0      0.00%      0.00% |           8    100.00%    100.00% |           0      0.00%    100.00% |           0      0.00%    100.00% |           0      0.00%    100.00% |           0      0.00%    100.00% (Unspecified)
system.caches.L1Cache_Controller.M_I.Load::total            8                       (Unspecified)
system.caches.L1Cache_Controller.M_I.WB_Ack |         215      0.01%      0.01% |           1      0.00%      0.01% |           0      0.00%      0.01% |     1753437     99.99%    100.00% |           0      0.00%    100.00% |           0      0.00%    100.00% |           0      0.00%    100.00% |           0      0.00%    100.00% (Unspecified)
system.caches.L1Cache_Controller.M_I.WB_Ack::total      1753653                       (Unspecified)
system.caches.Directory_Controller.Fetch |        1045      0.29%      0.29% |      356871     99.71%    100.00% (Unspecified)
system.caches.Directory_Controller.Fetch::total       357916                       (Unspecified)
system.caches.Directory_Controller.Data  |          66      0.02%      0.02% |      341155     99.98%    100.00% (Unspecified)
system.caches.Directory_Controller.Data::total       341221                       (Unspecified)
system.caches.Directory_Controller.Memory_Data |        1045      0.29%      0.29% |      356871     99.71%    100.00% (Unspecified)
system.caches.Directory_Controller.Memory_Data::total       357916                       (Unspecified)
system.caches.Directory_Controller.Memory_Ack |          66      0.02%      0.02% |      341155     99.98%    100.00% (Unspecified)
system.caches.Directory_Controller.Memory_Ack::total       341221                       (Unspecified)
system.caches.Directory_Controller.CleanReplacement |         932      5.58%      5.58% |       15763     94.42%    100.00% (Unspecified)
system.caches.Directory_Controller.CleanReplacement::total        16695                       (Unspecified)
system.caches.Directory_Controller.I.Fetch |        1045      0.29%      0.29% |      356871     99.71%    100.00% (Unspecified)
system.caches.Directory_Controller.I.Fetch::total       357916                       (Unspecified)
system.caches.Directory_Controller.M.Data |          66      0.02%      0.02% |      341155     99.98%    100.00% (Unspecified)
system.caches.Directory_Controller.M.Data::total       341221                       (Unspecified)
system.caches.Directory_Controller.M.CleanReplacement |         932      5.58%      5.58% |       15763     94.42%    100.00% (Unspecified)
system.caches.Directory_Controller.M.CleanReplacement::total        16695                       (Unspecified)
system.caches.Directory_Controller.IM.Memory_Data |        1045      0.29%      0.29% |      356871     99.71%    100.00% (Unspecified)
system.caches.Directory_Controller.IM.Memory_Data::total       357916                       (Unspecified)
system.caches.Directory_Controller.MI.Memory_Ack |          66      0.02%      0.02% |      341155     99.98%    100.00% (Unspecified)
system.caches.Directory_Controller.MI.Memory_Ack::total       341221                       (Unspecified)
system.caches.L2Cache_Controller.L1_GET_INSTR |        2036     11.00%     11.00% |        3919     21.17%     32.17% |        2560     13.83%     45.99% |         743      4.01%     50.01% |        2295     12.40%     62.40% |        3164     17.09%     79.50% |        2495     13.48%     92.97% |        1301      7.03%    100.00% (Unspecified)
system.caches.L2Cache_Controller.L1_GET_INSTR::total        18513                       (Unspecified)
system.caches.L2Cache_Controller.L1_GETS |      221487     12.57%     12.57% |      220463     12.51%     25.08% |      219943     12.48%     37.56% |      219782     12.47%     50.03% |      220089     12.49%     62.52% |      219819     12.47%     74.99% |      220224     12.50%     87.49% |      220431     12.51%    100.00% (Unspecified)
system.caches.L2Cache_Controller.L1_GETS::total      1762238                       (Unspecified)
system.caches.L2Cache_Controller.L1_GETX |         553     16.26%     16.26% |         442     13.00%     29.26% |         228      6.70%     35.96% |         342     10.06%     46.02% |         397     11.67%     57.69% |         652     19.17%     76.86% |         357     10.50%     87.36% |         430     12.64%    100.00% (Unspecified)
system.caches.L2Cache_Controller.L1_GETX::total         3401                       (Unspecified)
system.caches.L2Cache_Controller.L1_UPGRADE |        1096     13.47%     13.47% |        1000     12.29%     25.77% |         926     11.38%     37.15% |         953     11.71%     48.86% |        1058     13.01%     61.87% |         946     11.63%     73.50% |        1080     13.28%     86.77% |        1076     13.23%    100.00% (Unspecified)
system.caches.L2Cache_Controller.L1_UPGRADE::total         8135                       (Unspecified)
system.caches.L2Cache_Controller.L1_PUTX |      219361     12.51%     12.51% |      219257     12.50%     25.01% |      218982     12.49%     37.50% |      219113     12.49%     49.99% |      219055     12.49%     62.48% |      219404     12.51%     75.00% |      219010     12.49%     87.48% |      219471     12.52%    100.00% (Unspecified)
system.caches.L2Cache_Controller.L1_PUTX::total      1753653                       (Unspecified)
system.caches.L2Cache_Controller.L2_Replacement |       42564     12.54%     12.54% |       42457     12.51%     25.04% |       42396     12.49%     37.53% |       42391     12.49%     50.02% |       42385     12.48%     62.50% |       42441     12.50%     75.00% |       42373     12.48%     87.48% |       42503     12.52%    100.00% (Unspecified)
system.caches.L2Cache_Controller.L2_Replacement::total       339510                       (Unspecified)
system.caches.L2Cache_Controller.L2_Replacement_clean |        2433     13.22%     13.22% |        2363     12.84%     26.06% |        2194     11.92%     37.98% |        2301     12.50%     50.48% |        2233     12.13%     62.61% |        2382     12.94%     75.55% |        2220     12.06%     87.61% |        2280     12.39%    100.00% (Unspecified)
system.caches.L2Cache_Controller.L2_Replacement_clean::total        18406                       (Unspecified)
system.caches.L2Cache_Controller.Mem_Data |       44997     12.57%     12.57% |       44820     12.52%     25.09% |       44590     12.46%     37.55% |       44692     12.49%     50.04% |       44618     12.47%     62.51% |       44823     12.52%     75.03% |       44593     12.46%     87.49% |       44783     12.51%    100.00% (Unspecified)
system.caches.L2Cache_Controller.Mem_Data::total       357916                       (Unspecified)
system.caches.L2Cache_Controller.Mem_Ack |       44997     12.57%     12.57% |       44820     12.52%     25.09% |       44590     12.46%     37.55% |       44692     12.49%     50.04% |       44618     12.47%     62.51% |       44823     12.52%     75.03% |       44593     12.46%     87.49% |       44783     12.51%    100.00% (Unspecified)
system.caches.L2Cache_Controller.Mem_Ack::total       357916                       (Unspecified)
system.caches.L2Cache_Controller.WB_Data |        1381     13.81%     13.81% |        1240     12.40%     26.22% |        1121     11.21%     37.43% |        1219     12.19%     49.62% |        1238     12.38%     62.01% |        1264     12.64%     74.65% |        1198     11.98%     86.64% |        1336     13.36%    100.00% (Unspecified)
system.caches.L2Cache_Controller.WB_Data::total         9997                       (Unspecified)
system.caches.L2Cache_Controller.WB_Data_clean |          40     25.64%     25.64% |          10      6.41%     32.05% |           7      4.49%     36.54% |           5      3.21%     39.74% |          29     18.59%     58.33% |          10      6.41%     64.74% |          47     30.13%     94.87% |           8      5.13%    100.00% (Unspecified)
system.caches.L2Cache_Controller.WB_Data_clean::total          156                       (Unspecified)
system.caches.L2Cache_Controller.Ack     |         789     16.03%     16.03% |         646     13.13%     29.16% |         407      8.27%     37.43% |         493     10.02%     47.45% |         638     12.96%     60.41% |         635     12.90%     73.32% |         722     14.67%     87.99% |         591     12.01%    100.00% (Unspecified)
system.caches.L2Cache_Controller.Ack::total         4921                       (Unspecified)
system.caches.L2Cache_Controller.Ack_all |         351     16.27%     16.27% |         294     13.62%     29.89% |         206      9.55%     39.43% |         259     12.00%     51.44% |         270     12.51%     63.95% |         244     11.31%     75.25% |         303     14.04%     89.30% |         231     10.70%    100.00% (Unspecified)
system.caches.L2Cache_Controller.Ack_all::total         2158                       (Unspecified)
system.caches.L2Cache_Controller.Unblock |        1139     13.65%     13.65% |        1016     12.18%     25.83% |         942     11.29%     37.12% |         965     11.57%     48.68% |        1106     13.26%     61.94% |         962     11.53%     73.47% |        1131     13.55%     87.02% |        1083     12.98%    100.00% (Unspecified)
system.caches.L2Cache_Controller.Unblock::total         8344                       (Unspecified)
system.caches.L2Cache_Controller.Exclusive_Unblock |      219968     12.52%     12.52% |      219662     12.50%     25.02% |      219221     12.48%     37.50% |      219481     12.49%     49.99% |      219455     12.49%     62.49% |      219788     12.51%     75.00% |      219383     12.49%     87.48% |      219910     12.52%    100.00% (Unspecified)
system.caches.L2Cache_Controller.Exclusive_Unblock::total      1756868                       (Unspecified)
system.caches.L2Cache_Controller.NP.L1_GET_INSTR |         148     15.66%     15.66% |         128     13.54%     29.21% |          84      8.89%     38.10% |         102     10.79%     48.89% |         113     11.96%     60.85% |         121     12.80%     73.65% |         108     11.43%     85.08% |         141     14.92%    100.00% (Unspecified)
system.caches.L2Cache_Controller.NP.L1_GET_INSTR::total          945                       (Unspecified)
system.caches.L2Cache_Controller.NP.L1_GETS |       44638     12.54%     12.54% |       44530     12.51%     25.06% |       44442     12.49%     37.54% |       44471     12.50%     50.04% |       44408     12.48%     62.52% |       44487     12.50%     75.02% |       44412     12.48%     87.50% |       44494     12.50%    100.00% (Unspecified)
system.caches.L2Cache_Controller.NP.L1_GETS::total       355882                       (Unspecified)
system.caches.L2Cache_Controller.NP.L1_GETX |         211     19.38%     19.38% |         162     14.88%     34.25% |          64      5.88%     40.13% |         119     10.93%     51.06% |          97      8.91%     59.96% |         215     19.74%     79.71% |          73      6.70%     86.41% |         148     13.59%    100.00% (Unspecified)
system.caches.L2Cache_Controller.NP.L1_GETX::total         1089                       (Unspecified)
system.caches.L2Cache_Controller.SS.L1_GET_INSTR |        1824     10.63%     10.63% |        3733     21.75%     32.38% |        2437     14.20%     46.58% |         592      3.45%     50.03% |        2140     12.47%     62.50% |        2979     17.36%     79.86% |        2340     13.64%     93.50% |        1116      6.50%    100.00% (Unspecified)
system.caches.L2Cache_Controller.SS.L1_GET_INSTR::total        17161                       (Unspecified)
system.caches.L2Cache_Controller.SS.L1_GETS |        2016     23.89%     23.89% |        1220     14.46%     38.35% |         934     11.07%     49.42% |         620      7.35%     56.77% |         960     11.38%     68.14% |         653      7.74%     75.88% |        1102     13.06%     88.94% |         933     11.06%    100.00% (Unspecified)
system.caches.L2Cache_Controller.SS.L1_GETS::total         8438                       (Unspecified)
system.caches.L2Cache_Controller.SS.L1_GETX |           2     10.53%     10.53% |           0      0.00%     10.53% |           0      0.00%     10.53% |           0      0.00%     10.53% |          16     84.21%     94.74% |           0      0.00%     94.74% |           1      5.26%    100.00% |           0      0.00%    100.00% (Unspecified)
system.caches.L2Cache_Controller.SS.L1_GETX::total           19                       (Unspecified)
system.caches.L2Cache_Controller.SS.L1_UPGRADE |        1096     13.48%     13.48% |        1000     12.30%     25.78% |         926     11.39%     37.17% |         953     11.72%     48.89% |        1058     13.01%     61.90% |         946     11.63%     73.53% |        1076     13.23%     86.77% |        1076     13.23%    100.00% (Unspecified)
system.caches.L2Cache_Controller.SS.L1_UPGRADE::total         8131                       (Unspecified)
system.caches.L2Cache_Controller.SS.L2_Replacement |          18     19.78%     19.78% |           6      6.59%     26.37% |          11     12.09%     38.46% |           7      7.69%     46.15% |           9      9.89%     56.04% |           6      6.59%     62.64% |          30     32.97%     95.60% |           4      4.40%    100.00% (Unspecified)
system.caches.L2Cache_Controller.SS.L2_Replacement::total           91                       (Unspecified)
system.caches.L2Cache_Controller.SS.L2_Replacement_clean |         164     15.98%     15.98% |         134     13.06%     29.04% |          86      8.38%     37.43% |         107     10.43%     47.86% |         129     12.57%     60.43% |         130     12.67%     73.10% |         138     13.45%     86.55% |         138     13.45%    100.00% (Unspecified)
system.caches.L2Cache_Controller.SS.L2_Replacement_clean::total         1026                       (Unspecified)
system.caches.L2Cache_Controller.M.L1_GET_INSTR |           4     21.05%     21.05% |           4     21.05%     42.11% |           3     15.79%     57.89% |           1      5.26%     63.16% |           0      0.00%     63.16% |           1      5.26%     68.42% |           2     10.53%     78.95% |           4     21.05%    100.00% (Unspecified)
system.caches.L2Cache_Controller.M.L1_GET_INSTR::total           19                       (Unspecified)
system.caches.L2Cache_Controller.M.L1_GETS |      173684     12.50%     12.50% |      173693     12.50%     25.00% |      173625     12.50%     37.50% |      173720     12.50%     50.00% |      173596     12.49%     62.49% |      173709     12.50%     74.99% |      173549     12.49%     87.48% |      173912     12.52%    100.00% (Unspecified)
system.caches.L2Cache_Controller.M.L1_GETS::total      1389488                       (Unspecified)
system.caches.L2Cache_Controller.M.L1_GETX |         340     14.84%     14.84% |         280     12.22%     27.06% |         164      7.16%     34.22% |         223      9.73%     43.95% |         282     12.31%     56.26% |         437     19.07%     75.34% |         283     12.35%     87.69% |         282     12.31%    100.00% (Unspecified)
system.caches.L2Cache_Controller.M.L1_GETX::total         2291                       (Unspecified)
system.caches.L2Cache_Controller.M.L2_Replacement |       42537     12.54%     12.54% |       42445     12.51%     25.04% |       42378     12.49%     37.53% |       42376     12.49%     50.02% |       42350     12.48%     62.50% |       42425     12.50%     75.01% |       42339     12.48%     87.48% |       42471     12.52%    100.00% (Unspecified)
system.caches.L2Cache_Controller.M.L2_Replacement::total       339321                       (Unspecified)
system.caches.L2Cache_Controller.M.L2_Replacement_clean |        1827     12.49%     12.49% |        1847     12.63%     25.12% |        1820     12.44%     37.56% |        1798     12.29%     49.85% |        1837     12.56%     62.41% |        1842     12.59%     75.00% |        1837     12.56%     87.56% |        1820     12.44%    100.00% (Unspecified)
system.caches.L2Cache_Controller.M.L2_Replacement_clean::total        14628                       (Unspecified)
system.caches.L2Cache_Controller.MT.L1_GETS |        1139     13.65%     13.65% |        1016     12.18%     25.83% |         942     11.29%     37.12% |         965     11.57%     48.68% |        1106     13.26%     61.94% |         962     11.53%     73.47% |        1131     13.55%     87.02% |        1083     12.98%    100.00% (Unspecified)
system.caches.L2Cache_Controller.MT.L1_GETS::total         8344                       (Unspecified)
system.caches.L2Cache_Controller.MT.L1_GETX |           0      0.00%      0.00% |           0      0.00%      0.00% |           0      0.00%      0.00% |           0      0.00%      0.00% |           2    100.00%    100.00% |           0      0.00%    100.00% |           0      0.00%    100.00% |           0      0.00%    100.00% (Unspecified)
system.caches.L2Cache_Controller.MT.L1_GETX::total            2                       (Unspecified)
system.caches.L2Cache_Controller.MT.L1_PUTX |      219361     12.51%     12.51% |      219257     12.50%     25.01% |      218982     12.49%     37.50% |      219113     12.49%     49.99% |      219055     12.49%     62.48% |      219404     12.51%     75.00% |      219010     12.49%     87.48% |      219471     12.52%    100.00% (Unspecified)
system.caches.L2Cache_Controller.MT.L1_PUTX::total      1753653                       (Unspecified)
system.caches.L2Cache_Controller.MT.L2_Replacement |           9      9.18%      9.18% |           6      6.12%     15.31% |           7      7.14%     22.45% |           8      8.16%     30.61% |          26     26.53%     57.14% |          10     10.20%     67.35% |           4      4.08%     71.43% |          28     28.57%    100.00% (Unspecified)
system.caches.L2Cache_Controller.MT.L2_Replacement::total           98                       (Unspecified)
system.caches.L2Cache_Controller.MT.L2_Replacement_clean |         442     16.06%     16.06% |         382     13.88%     29.94% |         288     10.47%     40.41% |         396     14.39%     54.80% |         267      9.70%     64.50% |         410     14.90%     79.40% |         245      8.90%     88.30% |         322     11.70%    100.00% (Unspecified)
system.caches.L2Cache_Controller.MT.L2_Replacement_clean::total         2752                       (Unspecified)
system.caches.L2Cache_Controller.M_I.L1_GETS |           0      0.00%      0.00% |           0      0.00%      0.00% |           0      0.00%      0.00% |           0      0.00%      0.00% |           0      0.00%      0.00% |           1    100.00%    100.00% |           0      0.00%    100.00% |           0      0.00%    100.00% (Unspecified)
system.caches.L2Cache_Controller.M_I.L1_GETS::total            1                       (Unspecified)
system.caches.L2Cache_Controller.M_I.Mem_Ack |       44997     12.57%     12.57% |       44820     12.52%     25.09% |       44590     12.46%     37.55% |       44692     12.49%     50.04% |       44618     12.47%     62.51% |       44823     12.52%     75.03% |       44593     12.46%     87.49% |       44783     12.51%    100.00% (Unspecified)
system.caches.L2Cache_Controller.M_I.Mem_Ack::total       357916                       (Unspecified)
system.caches.L2Cache_Controller.MT_I.WB_Data |           9      9.18%      9.18% |           6      6.12%     15.31% |           7      7.14%     22.45% |           8      8.16%     30.61% |          26     26.53%     57.14% |          10     10.20%     67.35% |           4      4.08%     71.43% |          28     28.57%    100.00% (Unspecified)
system.caches.L2Cache_Controller.MT_I.WB_Data::total           98                       (Unspecified)
system.caches.L2Cache_Controller.MCT_I.WB_Data |         273     15.96%     15.96% |         228     13.33%     29.28% |         179     10.46%     39.74% |         251     14.67%     54.41% |         135      7.89%     62.30% |         302     17.65%     79.95% |         110      6.43%     86.38% |         233     13.62%    100.00% (Unspecified)
system.caches.L2Cache_Controller.MCT_I.WB_Data::total         1711                       (Unspecified)
system.caches.L2Cache_Controller.MCT_I.Ack_all |         169     16.23%     16.23% |         154     14.79%     31.03% |         109     10.47%     41.50% |         145     13.93%     55.43% |         132     12.68%     68.11% |         108     10.37%     78.48% |         135     12.97%     91.45% |          89      8.55%    100.00% (Unspecified)
system.caches.L2Cache_Controller.MCT_I.Ack_all::total         1041                       (Unspecified)
system.caches.L2Cache_Controller.I_I.Ack |         739     15.52%     15.52% |         640     13.44%     28.96% |         394      8.27%     37.23% |         486     10.21%     47.44% |         625     13.12%     60.56% |         629     13.21%     73.77% |         662     13.90%     87.67% |         587     12.33%    100.00% (Unspecified)
system.caches.L2Cache_Controller.I_I.Ack::total         4762                       (Unspecified)
system.caches.L2Cache_Controller.I_I.Ack_all |         164     15.98%     15.98% |         134     13.06%     29.04% |          86      8.38%     37.43% |         107     10.43%     47.86% |         129     12.57%     60.43% |         130     12.67%     73.10% |         138     13.45%     86.55% |         138     13.45%    100.00% (Unspecified)
system.caches.L2Cache_Controller.I_I.Ack_all::total         1026                       (Unspecified)
system.caches.L2Cache_Controller.S_I.Ack |          50     31.45%     31.45% |           6      3.77%     35.22% |          13      8.18%     43.40% |           7      4.40%     47.80% |          13      8.18%     55.97% |           6      3.77%     59.75% |          60     37.74%     97.48% |           4      2.52%    100.00% (Unspecified)
system.caches.L2Cache_Controller.S_I.Ack::total          159                       (Unspecified)
system.caches.L2Cache_Controller.S_I.Ack_all |          18     19.78%     19.78% |           6      6.59%     26.37% |          11     12.09%     38.46% |           7      7.69%     46.15% |           9      9.89%     56.04% |           6      6.59%     62.64% |          30     32.97%     95.60% |           4      4.40%    100.00% (Unspecified)
system.caches.L2Cache_Controller.S_I.Ack_all::total           91                       (Unspecified)
system.caches.L2Cache_Controller.ISS.L1_GETS |           3      8.82%      8.82% |           3      8.82%     17.65% |           0      0.00%     17.65% |           5     14.71%     32.35% |           4     11.76%     44.12% |           6     17.65%     61.76% |          11     32.35%     94.12% |           2      5.88%    100.00% (Unspecified)
system.caches.L2Cache_Controller.ISS.L1_GETS::total           34                       (Unspecified)
system.caches.L2Cache_Controller.ISS.Mem_Data |       44635     12.54%     12.54% |       44527     12.51%     25.06% |       44442     12.49%     37.55% |       44466     12.50%     50.04% |       44404     12.48%     62.52% |       44481     12.50%     75.02% |       44401     12.48%     87.50% |       44492     12.50%    100.00% (Unspecified)
system.caches.L2Cache_Controller.ISS.Mem_Data::total       355848                       (Unspecified)
system.caches.L2Cache_Controller.IS.L1_GET_INSTR |          60     15.46%     15.46% |          54     13.92%     29.38% |          36      9.28%     38.66% |          48     12.37%     51.03% |          42     10.82%     61.86% |          63     16.24%     78.09% |          45     11.60%     89.69% |          40     10.31%    100.00% (Unspecified)
system.caches.L2Cache_Controller.IS.L1_GET_INSTR::total          388                       (Unspecified)
system.caches.L2Cache_Controller.IS.L1_GETS |           2     14.29%     14.29% |           1      7.14%     21.43% |           0      0.00%     21.43% |           1      7.14%     28.57% |           4     28.57%     57.14% |           1      7.14%     64.29% |           5     35.71%    100.00% |           0      0.00%    100.00% (Unspecified)
system.caches.L2Cache_Controller.IS.L1_GETS::total           14                       (Unspecified)
system.caches.L2Cache_Controller.IS.Mem_Data |         151     15.42%     15.42% |         131     13.38%     28.80% |          84      8.58%     37.39% |         107     10.93%     48.31% |         117     11.95%     60.27% |         127     12.97%     73.24% |         119     12.16%     85.39% |         143     14.61%    100.00% (Unspecified)
system.caches.L2Cache_Controller.IS.Mem_Data::total          979                       (Unspecified)
system.caches.L2Cache_Controller.IM.L1_GETS |           0      0.00%      0.00% |           0      0.00%      0.00% |           0      0.00%      0.00% |           0      0.00%      0.00% |           1    100.00%    100.00% |           0      0.00%    100.00% |           0      0.00%    100.00% |           0      0.00%    100.00% (Unspecified)
system.caches.L2Cache_Controller.IM.L1_GETS::total            1                       (Unspecified)
system.caches.L2Cache_Controller.IM.Mem_Data |         211     19.38%     19.38% |         162     14.88%     34.25% |          64      5.88%     40.13% |         119     10.93%     51.06% |          97      8.91%     59.96% |         215     19.74%     79.71% |          73      6.70%     86.41% |         148     13.59%    100.00% (Unspecified)
system.caches.L2Cache_Controller.IM.Mem_Data::total         1089                       (Unspecified)
system.caches.L2Cache_Controller.SS_MB.L1_GETS |           0      0.00%      0.00% |           0      0.00%      0.00% |           0      0.00%      0.00% |           0      0.00%      0.00% |           0      0.00%      0.00% |           0      0.00%      0.00% |          10    100.00%    100.00% |           0      0.00%    100.00% (Unspecified)
system.caches.L2Cache_Controller.SS_MB.L1_GETS::total           10                       (Unspecified)
system.caches.L2Cache_Controller.SS_MB.Exclusive_Unblock |        1098     13.47%     13.47% |        1000     12.27%     25.74% |         926     11.36%     37.10% |         953     11.69%     48.80% |        1074     13.18%     61.98% |         946     11.61%     73.58% |        1077     13.21%     86.80% |        1076     13.20%    100.00% (Unspecified)
system.caches.L2Cache_Controller.SS_MB.Exclusive_Unblock::total         8150                       (Unspecified)
system.caches.L2Cache_Controller.MT_MB.Exclusive_Unblock |      218870     12.52%     12.52% |      218662     12.50%     25.02% |      218295     12.48%     37.50% |      218528     12.50%     50.00% |      218381     12.49%     62.49% |      218842     12.51%     75.00% |      218306     12.48%     87.49% |      218834     12.51%    100.00% (Unspecified)
system.caches.L2Cache_Controller.MT_MB.Exclusive_Unblock::total      1748718                       (Unspecified)
system.caches.L2Cache_Controller.MT_IIB.L1_GETS |           5     20.00%     20.00% |           0      0.00%     20.00% |           0      0.00%     20.00% |           0      0.00%     20.00% |           9     36.00%     56.00% |           0      0.00%     56.00% |           4     16.00%     72.00% |           7     28.00%    100.00% (Unspecified)
system.caches.L2Cache_Controller.MT_IIB.L1_GETS::total           25                       (Unspecified)
system.caches.L2Cache_Controller.MT_IIB.WB_Data |        1099     13.42%     13.42% |        1006     12.29%     25.71% |         935     11.42%     37.13% |         960     11.72%     48.85% |        1077     13.15%     62.01% |         952     11.63%     73.63% |        1084     13.24%     86.87% |        1075     13.13%    100.00% (Unspecified)
system.caches.L2Cache_Controller.MT_IIB.WB_Data::total         8188                       (Unspecified)
system.caches.L2Cache_Controller.MT_IIB.WB_Data_clean |          40     25.64%     25.64% |          10      6.41%     32.05% |           7      4.49%     36.54% |           5      3.21%     39.74% |          29     18.59%     58.33% |          10      6.41%     64.74% |          47     30.13%     94.87% |           8      5.13%    100.00% (Unspecified)
system.caches.L2Cache_Controller.MT_IIB.WB_Data_clean::total          156                       (Unspecified)
system.caches.L2Cache_Controller.MT_SB.L1_GETS |           0      0.00%      0.00% |           0      0.00%      0.00% |           0      0.00%      0.00% |           0      0.00%      0.00% |           1    100.00%    100.00% |           0      0.00%    100.00% |           0      0.00%    100.00% |           0      0.00%    100.00% (Unspecified)
system.caches.L2Cache_Controller.MT_SB.L1_GETS::total            1                       (Unspecified)
system.caches.L2Cache_Controller.MT_SB.L1_UPGRADE |           0      0.00%      0.00% |           0      0.00%      0.00% |           0      0.00%      0.00% |           0      0.00%      0.00% |           0      0.00%      0.00% |           0      0.00%      0.00% |           4    100.00%    100.00% |           0      0.00%    100.00% (Unspecified)
system.caches.L2Cache_Controller.MT_SB.L1_UPGRADE::total            4                       (Unspecified)
system.caches.L2Cache_Controller.MT_SB.Unblock |        1139     13.65%     13.65% |        1016     12.18%     25.83% |         942     11.29%     37.12% |         965     11.57%     48.68% |        1106     13.26%     61.94% |         962     11.53%     73.47% |        1131     13.55%     87.02% |        1083     12.98%    100.00% (Unspecified)
system.caches.L2Cache_Controller.MT_SB.Unblock::total         8344                       (Unspecified)
system.caches.RequestType.LD.latency_hist_seqr::bucket_size          512                       (Unspecified)
system.caches.RequestType.LD.latency_hist_seqr::max_bucket         5119                       (Unspecified)
system.caches.RequestType.LD.latency_hist_seqr::samples     94874959                       (Unspecified)
system.caches.RequestType.LD.latency_hist_seqr::mean     2.565479                       (Unspecified)
system.caches.RequestType.LD.latency_hist_seqr::gmean     1.064927                       (Unspecified)
system.caches.RequestType.LD.latency_hist_seqr::stdev    28.665290                       (Unspecified)
system.caches.RequestType.LD.latency_hist_seqr |    94814179     99.94%     99.94% |       49939      0.05%     99.99% |        6653      0.01%    100.00% |        2553      0.00%    100.00% |         967      0.00%    100.00% |         622      0.00%    100.00% |          45      0.00%    100.00% |           1      0.00%    100.00% |           0      0.00%    100.00% |           0      0.00%    100.00% (Unspecified)
system.caches.RequestType.LD.latency_hist_seqr::total     94874959                       (Unspecified)
system.caches.RequestType.LD.hit_latency_hist_seqr::bucket_size            1                       (Unspecified)
system.caches.RequestType.LD.hit_latency_hist_seqr::max_bucket            9                       (Unspecified)
system.caches.RequestType.LD.hit_latency_hist_seqr::samples     93112759                       (Unspecified)
system.caches.RequestType.LD.hit_latency_hist_seqr::mean     1.000057                       (Unspecified)
system.caches.RequestType.LD.hit_latency_hist_seqr::gmean     1.000039                       (Unspecified)
system.caches.RequestType.LD.hit_latency_hist_seqr::stdev     0.007529                       (Unspecified)
system.caches.RequestType.LD.hit_latency_hist_seqr |           0      0.00%      0.00% |    93107481     99.99%     99.99% |        5278      0.01%    100.00% |           0      0.00%    100.00% |           0      0.00%    100.00% |           0      0.00%    100.00% |           0      0.00%    100.00% |           0      0.00%    100.00% |           0      0.00%    100.00% |           0      0.00%    100.00% (Unspecified)
system.caches.RequestType.LD.hit_latency_hist_seqr::total     93112759                       (Unspecified)
system.caches.RequestType.LD.miss_latency_hist_seqr::bucket_size          512                       (Unspecified)
system.caches.RequestType.LD.miss_latency_hist_seqr::max_bucket         5119                       (Unspecified)
system.caches.RequestType.LD.miss_latency_hist_seqr::samples      1762200                       (Unspecified)
system.caches.RequestType.LD.miss_latency_hist_seqr::mean    85.280733                       (Unspecified)
system.caches.RequestType.LD.miss_latency_hist_seqr::gmean    29.510368                       (Unspecified)
system.caches.RequestType.LD.miss_latency_hist_seqr::stdev   193.049494                       (Unspecified)
system.caches.RequestType.LD.miss_latency_hist_seqr |     1701420     96.55%     96.55% |       49939      2.83%     99.38% |        6653      0.38%     99.76% |        2553      0.14%     99.91% |         967      0.05%     99.96% |         622      0.04%    100.00% |          45      0.00%    100.00% |           1      0.00%    100.00% |           0      0.00%    100.00% |           0      0.00%    100.00% (Unspecified)
system.caches.RequestType.LD.miss_latency_hist_seqr::total      1762200                       (Unspecified)
system.caches.RequestType.ST.latency_hist_seqr::bucket_size          512                       (Unspecified)
system.caches.RequestType.ST.latency_hist_seqr::max_bucket         5119                       (Unspecified)
system.caches.RequestType.ST.latency_hist_seqr::samples     20969622                       (Unspecified)
system.caches.RequestType.ST.latency_hist_seqr::mean     1.115570                       (Unspecified)
system.caches.RequestType.ST.latency_hist_seqr::gmean     1.070348                       (Unspecified)
system.caches.RequestType.ST.latency_hist_seqr::stdev     2.671590                       (Unspecified)
system.caches.RequestType.ST.latency_hist_seqr |    20969489    100.00%    100.00% |         122      0.00%    100.00% |           4      0.00%    100.00% |           3      0.00%    100.00% |           2      0.00%    100.00% |           1      0.00%    100.00% |           1      0.00%    100.00% |           0      0.00%    100.00% |           0      0.00%    100.00% |           0      0.00%    100.00% (Unspecified)
system.caches.RequestType.ST.latency_hist_seqr::total     20969622                       (Unspecified)
system.caches.RequestType.ST.hit_latency_hist_seqr::bucket_size          128                       (Unspecified)
system.caches.RequestType.ST.hit_latency_hist_seqr::max_bucket         1279                       (Unspecified)
system.caches.RequestType.ST.hit_latency_hist_seqr::samples     20959607                       (Unspecified)
system.caches.RequestType.ST.hit_latency_hist_seqr::mean     1.096183                       (Unspecified)
system.caches.RequestType.ST.hit_latency_hist_seqr::gmean     1.068806                       (Unspecified)
system.caches.RequestType.ST.hit_latency_hist_seqr::stdev     0.446405                       (Unspecified)
system.caches.RequestType.ST.hit_latency_hist_seqr |    20959598    100.00%    100.00% |           3      0.00%    100.00% |           2      0.00%    100.00% |           1      0.00%    100.00% |           1      0.00%    100.00% |           1      0.00%    100.00% |           0      0.00%    100.00% |           1      0.00%    100.00% |           0      0.00%    100.00% |           0      0.00%    100.00% (Unspecified)
system.caches.RequestType.ST.hit_latency_hist_seqr::total     20959607                       (Unspecified)
system.caches.RequestType.ST.miss_latency_hist_seqr::bucket_size          512                       (Unspecified)
system.caches.RequestType.ST.miss_latency_hist_seqr::max_bucket         5119                       (Unspecified)
system.caches.RequestType.ST.miss_latency_hist_seqr::samples        10015                       (Unspecified)
system.caches.RequestType.ST.miss_latency_hist_seqr::mean    41.689266                       (Unspecified)
system.caches.RequestType.ST.miss_latency_hist_seqr::gmean    21.868449                       (Unspecified)
system.caches.RequestType.ST.miss_latency_hist_seqr::stdev   113.497361                       (Unspecified)
system.caches.RequestType.ST.miss_latency_hist_seqr |        9885     98.70%     98.70% |         119      1.19%     99.89% |           4      0.04%     99.93% |           3      0.03%     99.96% |           2      0.02%     99.98% |           1      0.01%     99.99% |           1      0.01%    100.00% |           0      0.00%    100.00% |           0      0.00%    100.00% |           0      0.00%    100.00% (Unspecified)
system.caches.RequestType.ST.miss_latency_hist_seqr::total        10015                       (Unspecified)
system.caches.RequestType.IFETCH.latency_hist_seqr::bucket_size          256                       (Unspecified)
system.caches.RequestType.IFETCH.latency_hist_seqr::max_bucket         2559                       (Unspecified)
system.caches.RequestType.IFETCH.latency_hist_seqr::samples     71211158                       (Unspecified)
system.caches.RequestType.IFETCH.latency_hist_seqr::mean     1.007983                       (Unspecified)
system.caches.RequestType.IFETCH.latency_hist_seqr::gmean     1.000725                       (Unspecified)
system.caches.RequestType.IFETCH.latency_hist_seqr::stdev     1.312592                       (Unspecified)
system.caches.RequestType.IFETCH.latency_hist_seqr |    71210616    100.00%    100.00% |         520      0.00%    100.00% |           8      0.00%    100.00% |           2      0.00%    100.00% |           4      0.00%    100.00% |           6      0.00%    100.00% |           2      0.00%    100.00% |           0      0.00%    100.00% |           0      0.00%    100.00% |           0      0.00%    100.00% (Unspecified)
system.caches.RequestType.IFETCH.latency_hist_seqr::total     71211158                       (Unspecified)
system.caches.RequestType.IFETCH.hit_latency_hist_seqr::bucket_size            1                       (Unspecified)
system.caches.RequestType.IFETCH.hit_latency_hist_seqr::max_bucket            9                       (Unspecified)
system.caches.RequestType.IFETCH.hit_latency_hist_seqr::samples     71192645                       (Unspecified)
system.caches.RequestType.IFETCH.hit_latency_hist_seqr::mean     1.000000                       (Unspecified)
system.caches.RequestType.IFETCH.hit_latency_hist_seqr::gmean     1.000000                       (Unspecified)
system.caches.RequestType.IFETCH.hit_latency_hist_seqr::stdev     0.000205                       (Unspecified)
system.caches.RequestType.IFETCH.hit_latency_hist_seqr |           0      0.00%      0.00% |    71192642    100.00%    100.00% |           3      0.00%    100.00% |           0      0.00%    100.00% |           0      0.00%    100.00% |           0      0.00%    100.00% |           0      0.00%    100.00% |           0      0.00%    100.00% |           0      0.00%    100.00% |           0      0.00%    100.00% (Unspecified)
system.caches.RequestType.IFETCH.hit_latency_hist_seqr::total     71192645                       (Unspecified)
system.caches.RequestType.IFETCH.miss_latency_hist_seqr::bucket_size          256                       (Unspecified)
system.caches.RequestType.IFETCH.miss_latency_hist_seqr::max_bucket         2559                       (Unspecified)
system.caches.RequestType.IFETCH.miss_latency_hist_seqr::samples        18513                       (Unspecified)
system.caches.RequestType.IFETCH.miss_latency_hist_seqr::mean    31.706531                       (Unspecified)
system.caches.RequestType.IFETCH.miss_latency_hist_seqr::gmean    16.249982                       (Unspecified)
system.caches.RequestType.IFETCH.miss_latency_hist_seqr::stdev    75.398069                       (Unspecified)
system.caches.RequestType.IFETCH.miss_latency_hist_seqr |       17971     97.07%     97.07% |         520      2.81%     99.88% |           8      0.04%     99.92% |           2      0.01%     99.94% |           4      0.02%     99.96% |           6      0.03%     99.99% |           2      0.01%    100.00% |           0      0.00%    100.00% |           0      0.00%    100.00% |           0      0.00%    100.00% (Unspecified)
system.caches.RequestType.IFETCH.miss_latency_hist_seqr::total        18513                       (Unspecified)
system.caches.RequestType.RMW_Read.latency_hist_seqr::bucket_size          256                       (Unspecified)
system.caches.RequestType.RMW_Read.latency_hist_seqr::max_bucket         2559                       (Unspecified)
system.caches.RequestType.RMW_Read.latency_hist_seqr::samples        16201                       (Unspecified)
system.caches.RequestType.RMW_Read.latency_hist_seqr::mean     9.883587                       (Unspecified)
system.caches.RequestType.RMW_Read.latency_hist_seqr::gmean     1.535202                       (Unspecified)
system.caches.RequestType.RMW_Read.latency_hist_seqr::stdev    68.571065                       (Unspecified)
system.caches.RequestType.RMW_Read.latency_hist_seqr |       15966     98.55%     98.55% |         169      1.04%     99.59% |          51      0.31%     99.91% |           8      0.05%     99.96% |           0      0.00%     99.96% |           0      0.00%     99.96% |           2      0.01%     99.97% |           1      0.01%     99.98% |           4      0.02%    100.00% |           0      0.00%    100.00% (Unspecified)
system.caches.RequestType.RMW_Read.latency_hist_seqr::total        16201                       (Unspecified)
system.caches.RequestType.RMW_Read.hit_latency_hist_seqr::bucket_size           16                       (Unspecified)
system.caches.RequestType.RMW_Read.hit_latency_hist_seqr::max_bucket          159                       (Unspecified)
system.caches.RequestType.RMW_Read.hit_latency_hist_seqr::samples        14987                       (Unspecified)
system.caches.RequestType.RMW_Read.hit_latency_hist_seqr::mean     1.327150                       (Unspecified)
system.caches.RequestType.RMW_Read.hit_latency_hist_seqr::gmean     1.181863                       (Unspecified)
system.caches.RequestType.RMW_Read.hit_latency_hist_seqr::stdev     1.643508                       (Unspecified)
system.caches.RequestType.RMW_Read.hit_latency_hist_seqr |       14929     99.61%     99.61% |          57      0.38%     99.99% |           0      0.00%     99.99% |           0      0.00%     99.99% |           0      0.00%     99.99% |           1      0.01%    100.00% |           0      0.00%    100.00% |           0      0.00%    100.00% |           0      0.00%    100.00% |           0      0.00%    100.00% (Unspecified)
system.caches.RequestType.RMW_Read.hit_latency_hist_seqr::total        14987                       (Unspecified)
system.caches.RequestType.RMW_Read.miss_latency_hist_seqr::bucket_size          256                       (Unspecified)
system.caches.RequestType.RMW_Read.miss_latency_hist_seqr::max_bucket         2559                       (Unspecified)
system.caches.RequestType.RMW_Read.miss_latency_hist_seqr::samples         1214                       (Unspecified)
system.caches.RequestType.RMW_Read.miss_latency_hist_seqr::mean   115.514003                       (Unspecified)
system.caches.RequestType.RMW_Read.miss_latency_hist_seqr::gmean    38.775111                       (Unspecified)
system.caches.RequestType.RMW_Read.miss_latency_hist_seqr::stdev   225.148088                       (Unspecified)
system.caches.RequestType.RMW_Read.miss_latency_hist_seqr |         979     80.64%     80.64% |         169     13.92%     94.56% |          51      4.20%     98.76% |           8      0.66%     99.42% |           0      0.00%     99.42% |           0      0.00%     99.42% |           2      0.16%     99.59% |           1      0.08%     99.67% |           4      0.33%    100.00% |           0      0.00%    100.00% (Unspecified)
system.caches.RequestType.RMW_Read.miss_latency_hist_seqr::total         1214                       (Unspecified)
system.caches.RequestType.Locked_RMW_Read.latency_hist_seqr::bucket_size          256                       (Unspecified)
system.caches.RequestType.Locked_RMW_Read.latency_hist_seqr::max_bucket         2559                       (Unspecified)
system.caches.RequestType.Locked_RMW_Read.latency_hist_seqr::samples         5483                       (Unspecified)
system.caches.RequestType.Locked_RMW_Read.latency_hist_seqr::mean     5.876710                       (Unspecified)
system.caches.RequestType.Locked_RMW_Read.latency_hist_seqr::gmean     1.210881                       (Unspecified)
system.caches.RequestType.Locked_RMW_Read.latency_hist_seqr::stdev    46.749854                       (Unspecified)
system.caches.RequestType.Locked_RMW_Read.latency_hist_seqr |        5440     99.22%     99.22% |          31      0.57%     99.78% |           8      0.15%     99.93% |           3      0.05%     99.98% |           0      0.00%     99.98% |           1      0.02%    100.00% |           0      0.00%    100.00% |           0      0.00%    100.00% |           0      0.00%    100.00% |           0      0.00%    100.00% (Unspecified)
system.caches.RequestType.Locked_RMW_Read.latency_hist_seqr::total         5483                       (Unspecified)
system.caches.RequestType.Locked_RMW_Read.hit_latency_hist_seqr::bucket_size            1                       (Unspecified)
system.caches.RequestType.Locked_RMW_Read.hit_latency_hist_seqr::max_bucket            9                       (Unspecified)
system.caches.RequestType.Locked_RMW_Read.hit_latency_hist_seqr::samples         5180                       (Unspecified)
system.caches.RequestType.Locked_RMW_Read.hit_latency_hist_seqr::mean            1                       (Unspecified)
system.caches.RequestType.Locked_RMW_Read.hit_latency_hist_seqr::gmean            1                       (Unspecified)
system.caches.RequestType.Locked_RMW_Read.hit_latency_hist_seqr |           0      0.00%      0.00% |        5180    100.00%    100.00% |           0      0.00%    100.00% |           0      0.00%    100.00% |           0      0.00%    100.00% |           0      0.00%    100.00% |           0      0.00%    100.00% |           0      0.00%    100.00% |           0      0.00%    100.00% |           0      0.00%    100.00% (Unspecified)
system.caches.RequestType.Locked_RMW_Read.hit_latency_hist_seqr::total         5180                       (Unspecified)
system.caches.RequestType.Locked_RMW_Read.miss_latency_hist_seqr::bucket_size          256                       (Unspecified)
system.caches.RequestType.Locked_RMW_Read.miss_latency_hist_seqr::max_bucket         2559                       (Unspecified)
system.caches.RequestType.Locked_RMW_Read.miss_latency_hist_seqr::samples          303                       (Unspecified)
system.caches.RequestType.Locked_RMW_Read.miss_latency_hist_seqr::mean    89.247525                       (Unspecified)
system.caches.RequestType.Locked_RMW_Read.miss_latency_hist_seqr::gmean    31.899018                       (Unspecified)
system.caches.RequestType.Locked_RMW_Read.miss_latency_hist_seqr::stdev   179.697377                       (Unspecified)
system.caches.RequestType.Locked_RMW_Read.miss_latency_hist_seqr |         260     85.81%     85.81% |          31     10.23%     96.04% |           8      2.64%     98.68% |           3      0.99%     99.67% |           0      0.00%     99.67% |           1      0.33%    100.00% |           0      0.00%    100.00% |           0      0.00%    100.00% |           0      0.00%    100.00% |           0      0.00%    100.00% (Unspecified)
system.caches.RequestType.Locked_RMW_Read.miss_latency_hist_seqr::total          303                       (Unspecified)
system.caches.RequestType.Locked_RMW_Write.latency_hist_seqr::bucket_size            1                       (Unspecified)
system.caches.RequestType.Locked_RMW_Write.latency_hist_seqr::max_bucket            9                       (Unspecified)
system.caches.RequestType.Locked_RMW_Write.latency_hist_seqr::samples         5483                       (Unspecified)
system.caches.RequestType.Locked_RMW_Write.latency_hist_seqr::mean            1                       (Unspecified)
system.caches.RequestType.Locked_RMW_Write.latency_hist_seqr::gmean            1                       (Unspecified)
system.caches.RequestType.Locked_RMW_Write.latency_hist_seqr |           0      0.00%      0.00% |        5483    100.00%    100.00% |           0      0.00%    100.00% |           0      0.00%    100.00% |           0      0.00%    100.00% |           0      0.00%    100.00% |           0      0.00%    100.00% |           0      0.00%    100.00% |           0      0.00%    100.00% |           0      0.00%    100.00% (Unspecified)
system.caches.RequestType.Locked_RMW_Write.latency_hist_seqr::total         5483                       (Unspecified)
system.caches.RequestType.Locked_RMW_Write.hit_latency_hist_seqr::bucket_size            1                       (Unspecified)
system.caches.RequestType.Locked_RMW_Write.hit_latency_hist_seqr::max_bucket            9                       (Unspecified)
system.caches.RequestType.Locked_RMW_Write.hit_latency_hist_seqr::samples         5483                       (Unspecified)
[...]
system.o3Cpu7.iew.unblockCycles                  3944                       # Number of cycles IEW is unblocking (Cycle)
system.o3Cpu7.iew.dispatchedInsts              270088                       # Number of instructions dispatched to IQ (Count)
system.o3Cpu7.iew.dispSquashedInsts               102                       # Number of squashed instructions skipped by dispatch (Count)
system.o3Cpu7.iew.dispLoadInsts                 39845                       # Number of dispatched load instructions (Count)
system.o3Cpu7.iew.dispStoreInsts                22267                       # Number of dispatched store instructions (Count)
system.o3Cpu7.iew.dispNonSpecInsts               2793                       # Number of dispatched non-speculative instructions (Count)
system.o3Cpu7.iew.iqFullEvents                    138                       # Number of times the IQ has become full, causing a stall (Count)
system.o3Cpu7.iew.lsqFullEvents                  3697                       # Number of times the LSQ has become full, causing a stall (Count)
system.o3Cpu7.iew.memOrderViolationEvents          480                       # Number of memory order violations (Count)
system.o3Cpu7.iew.predictedTakenIncorrect          682                       # Number of branches that were predicted taken incorrectly (Count)
system.o3Cpu7.iew.predictedNotTakenIncorrect          770                       # Number of branches that were predicted not taken incorrectly (Count)
system.o3Cpu7.iew.branchMispredicts              1452                       # Number of branch mispredicts detected at execute (Count)
system.o3Cpu7.iew.instsToCommit                258510                       # Cumulative count of insts sent to commit (Count)
system.o3Cpu7.iew.writebackCount               258221                       # Cumulative count of insts written-back (Count)
system.o3Cpu7.iew.producerInst                 174001                       # Number of instructions producing a value (Count)
system.o3Cpu7.iew.consumerInst                 290247                       # Number of instructions consuming a value (Count)
system.o3Cpu7.iew.wbRate                     0.929622                       # Insts written-back per cycle ((Count/Cycle))
system.o3Cpu7.iew.wbFanout                   0.599493                       # Average fanout of values written-back ((Count/Count))
system.o3Cpu7.interrupts.clk_domain.clock         3200                       # Clock period in ticks (Tick)
system.o3Cpu7.lsq0.forwLoads                     5040                       # Number of loads that had data forwarded from stores (Count)
system.o3Cpu7.lsq0.squashedLoads                 4462                       # Number of loads squashed (Count)
system.o3Cpu7.lsq0.ignoredResponses                 6                       # Number of memory responses ignored because the instruction is squashed (Count)
system.o3Cpu7.lsq0.memOrderViolation              480                       # Number of memory ordering violations (Count)
system.o3Cpu7.lsq0.squashedStores                2307                       # Number of stores squashed (Count)
system.o3Cpu7.lsq0.rescheduledLoads                70                       # Number of loads that were rescheduled (Count)
system.o3Cpu7.lsq0.blockedByCache                   0                       # Number of times an access to memory failed due to the cache being blocked (Count)
system.o3Cpu7.lsq0.loadToUse::samples           35383                       # Distribution of cycle latency between the first time a load is issued and its completion (Unspecified)
system.o3Cpu7.lsq0.loadToUse::mean           8.016279                       # Distribution of cycle latency between the first time a load is issued and its completion (Unspecified)
system.o3Cpu7.lsq0.loadToUse::stdev         52.367036                       # Distribution of cycle latency between the first time a load is issued and its completion (Unspecified)
system.o3Cpu7.lsq0.loadToUse::0-9               34117     96.42%     96.42% # Distribution of cycle latency between the first time a load is issued and its completion (Unspecified)
system.o3Cpu7.lsq0.loadToUse::10-19               592      1.67%     98.10% # Distribution of cycle latency between the first time a load is issued and its completion (Unspecified)
system.o3Cpu7.lsq0.loadToUse::20-29               206      0.58%     98.68% # Distribution of cycle latency between the first time a load is issued and its completion (Unspecified)
system.o3Cpu7.lsq0.loadToUse::30-39                38      0.11%     98.78% # Distribution of cycle latency between the first time a load is issued and its completion (Unspecified)
system.o3Cpu7.lsq0.loadToUse::40-49                 2      0.01%     98.79% # Distribution of cycle latency between the first time a load is issued and its completion (Unspecified)
system.o3Cpu7.lsq0.loadToUse::50-59                 2      0.01%     98.80% # Distribution of cycle latency between the first time a load is issued and its completion (Unspecified)
system.o3Cpu7.lsq0.loadToUse::60-69                 1      0.00%     98.80% # Distribution of cycle latency between the first time a load is issued and its completion (Unspecified)
system.o3Cpu7.lsq0.loadToUse::70-79                 1      0.00%     98.80% # Distribution of cycle latency between the first time a load is issued and its completion (Unspecified)
system.o3Cpu7.lsq0.loadToUse::80-89                 8      0.02%     98.82% # Distribution of cycle latency between the first time a load is issued and its completion (Unspecified)
system.o3Cpu7.lsq0.loadToUse::150-159               2      0.01%     98.83% # Distribution of cycle latency between the first time a load is issued and its completion (Unspecified)
system.o3Cpu7.lsq0.loadToUse::160-169               2      0.01%     98.84% # Distribution of cycle latency between the first time a load is issued and its completion (Unspecified)
system.o3Cpu7.lsq0.loadToUse::170-179               2      0.01%     98.84% # Distribution of cycle latency between the first time a load is issued and its completion (Unspecified)
system.o3Cpu7.lsq0.loadToUse::180-189               5      0.01%     98.86% # Distribution of cycle latency between the first time a load is issued and its completion (Unspecified)
system.o3Cpu7.lsq0.loadToUse::190-199               7      0.02%     98.88% # Distribution of cycle latency between the first time a load is issued and its completion (Unspecified)
system.o3Cpu7.lsq0.loadToUse::200-209              10      0.03%     98.90% # Distribution of cycle latency between the first time a load is issued and its completion (Unspecified)
system.o3Cpu7.lsq0.loadToUse::210-219              67      0.19%     99.09% # Distribution of cycle latency between the first time a load is issued and its completion (Unspecified)
system.o3Cpu7.lsq0.loadToUse::220-229              12      0.03%     99.13% # Distribution of cycle latency between the first time a load is issued and its completion (Unspecified)
system.o3Cpu7.lsq0.loadToUse::230-239               7      0.02%     99.15% # Distribution of cycle latency between the first time a load is issued and its completion (Unspecified)
system.o3Cpu7.lsq0.loadToUse::240-249               9      0.03%     99.17% # Distribution of cycle latency between the first time a load is issued and its completion (Unspecified)
system.o3Cpu7.lsq0.loadToUse::250-259               6      0.02%     99.19% # Distribution of cycle latency between the first time a load is issued and its completion (Unspecified)
system.o3Cpu7.lsq0.loadToUse::260-269               7      0.02%     99.21% # Distribution of cycle latency between the first time a load is issued and its completion (Unspecified)
system.o3Cpu7.lsq0.loadToUse::270-279               9      0.03%     99.23% # Distribution of cycle latency between the first time a load is issued and its completion (Unspecified)
system.o3Cpu7.lsq0.loadToUse::280-289              17      0.05%     99.28% # Distribution of cycle latency between the first time a load is issued and its completion (Unspecified)
system.o3Cpu7.lsq0.loadToUse::290-299              33      0.09%     99.38% # Distribution of cycle latency between the first time a load is issued and its completion (Unspecified)
system.o3Cpu7.lsq0.loadToUse::overflows           221      0.62%    100.00% # Distribution of cycle latency between the first time a load is issued and its completion (Unspecified)
system.o3Cpu7.lsq0.loadToUse::min_value             2                       # Distribution of cycle latency between the first time a load is issued and its completion (Unspecified)
system.o3Cpu7.lsq0.loadToUse::max_value          1957                       # Distribution of cycle latency between the first time a load is issued and its completion (Unspecified)
system.o3Cpu7.lsq0.loadToUse::total             35383                       # Distribution of cycle latency between the first time a load is issued and its completion (Unspecified)
system.o3Cpu7.mmu.dtb.rdAccesses                38708                       # TLB accesses on read requests (Count)
system.o3Cpu7.mmu.dtb.wrAccesses                21052                       # TLB accesses on write requests (Count)
system.o3Cpu7.mmu.dtb.rdMisses                     81                       # TLB misses on read requests (Count)
system.o3Cpu7.mmu.dtb.wrMisses                      2                       # TLB misses on write requests (Count)
system.o3Cpu7.mmu.dtb.walker.power_state.pwrStateResidencyTicks::UNDEFINED  63861508000                       # Cumulative time (in ticks) in various power states (Tick)
system.o3Cpu7.mmu.itb.rdAccesses                    0                       # TLB accesses on read requests (Count)
system.o3Cpu7.mmu.itb.wrAccesses                24556                       # TLB accesses on write requests (Count)
system.o3Cpu7.mmu.itb.rdMisses                      0                       # TLB misses on read requests (Count)
system.o3Cpu7.mmu.itb.wrMisses                      6                       # TLB misses on write requests (Count)
system.o3Cpu7.mmu.itb.walker.power_state.pwrStateResidencyTicks::UNDEFINED  63861508000                       # Cumulative time (in ticks) in various power states (Tick)
system.o3Cpu7.power_state.numTransitions          126                       # Number of power state transitions (Count)
system.o3Cpu7.power_state.ticksClkGated::samples           63                       # Distribution of time spent in the clock gated state (Tick)
system.o3Cpu7.power_state.ticksClkGated::mean 993351539.682540                       # Distribution of time spent in the clock gated state (Tick)
system.o3Cpu7.power_state.ticksClkGated::stdev 45628130.085662                       # Distribution of time spent in the clock gated state (Tick)
system.o3Cpu7.power_state.ticksClkGated::1000-5e+10           63    100.00%    100.00% # Distribution of time spent in the clock gated state (Tick)
system.o3Cpu7.power_state.ticksClkGated::min_value    636981200                       # Distribution of time spent in the clock gated state (Tick)
system.o3Cpu7.power_state.ticksClkGated::max_value    999487000                       # Distribution of time spent in the clock gated state (Tick)
system.o3Cpu7.power_state.ticksClkGated::total           63                       # Distribution of time spent in the clock gated state (Tick)
system.o3Cpu7.power_state.pwrStateResidencyTicks::ON     55541400                       # Cumulative time (in ticks) in various power states (Tick)
system.o3Cpu7.power_state.pwrStateResidencyTicks::CLK_GATED  62581147000                       # Cumulative time (in ticks) in various power states (Tick)
system.o3Cpu7.power_state.pwrStateResidencyTicks::OFF   1224819600                       # Cumulative time (in ticks) in various power states (Tick)
system.o3Cpu7.rename.squashCycles                1988                       # Number of cycles rename is squashing (Cycle)
system.o3Cpu7.rename.idleCycles                 50490                       # Number of cycles rename is idle (Cycle)
system.o3Cpu7.rename.blockCycles                33732                       # Number of cycles rename is blocking (Cycle)
system.o3Cpu7.rename.serializeStallCycles       126897                       # count of cycles rename stalled for serializing inst (Cycle)
system.o3Cpu7.rename.runCycles                  44132                       # Number of cycles rename is running (Cycle)
system.o3Cpu7.rename.unblockCycles              20387                       # Number of cycles rename is unblocking (Cycle)
system.o3Cpu7.rename.renamedInsts              275376                       # Number of instructions processed by rename (Count)
system.o3Cpu7.rename.ROBFullEvents               1575                       # Number of times rename has blocked due to ROB full (Count)
system.o3Cpu7.rename.IQFullEvents                2175                       # Number of times rename has blocked due to IQ full (Count)
system.o3Cpu7.rename.LQFullEvents                4404                       # Number of times rename has blocked due to LQ full (Count)
system.o3Cpu7.rename.SQFullEvents               10866                       # Number of times rename has blocked due to SQ full (Count)
system.o3Cpu7.rename.renamedOperands           396406                       # Number of destination operands rename has renamed (Count)
system.o3Cpu7.rename.lookups                   821076                       # Number of register rename lookups that rename has made (Count)
system.o3Cpu7.rename.intLookups                333996                       # Number of integer rename lookups (Count)
system.o3Cpu7.rename.committedMaps             347258                       # Number of HB maps that are committed (Count)
system.o3Cpu7.rename.undoneMaps                 49148                       # Number of HB maps that are undone due to squashing (Count)
system.o3Cpu7.rename.serializing                 2758                       # count of serializing insts renamed (Count)
system.o3Cpu7.rename.tempSerializing             2830                       # count of temporary serializing insts renamed (Count)
system.o3Cpu7.rename.skidInsts                  27431                       # count of insts added to the skid buffer (Count)
system.o3Cpu7.rob.reads                        527008                       # The number of ROB reads (Count)
system.o3Cpu7.rob.writes                       541510                       # The number of ROB writes (Count)
system.o3Cpu7.thread_0.numInsts                101792                       # Number of Instructions committed (Count)
system.o3Cpu7.thread_0.numOps                  239011                       # Number of Ops committed (Count)
system.o3Cpu7.thread_0.numMemRefs                   0                       # Number of Memory References (Count)
system.pc.bad_addr.power_state.pwrStateResidencyTicks::UNDEFINED  63861508000                       # Cumulative time (in ticks) in various power states (Tick)
system.pc.com_1.power_state.pwrStateResidencyTicks::UNDEFINED  63861508000                       # Cumulative time (in ticks) in various power states (Tick)
system.pc.default_bus.power_state.pwrStateResidencyTicks::UNDEFINED  63861508000                       # Cumulative time (in ticks) in various power states (Tick)
system.pc.empty_isa.power_state.pwrStateResidencyTicks::UNDEFINED  63861508000                       # Cumulative time (in ticks) in various power states (Tick)
system.pc.fake_com_2.power_state.pwrStateResidencyTicks::UNDEFINED  63861508000                       # Cumulative time (in ticks) in various power states (Tick)
system.pc.fake_com_3.power_state.pwrStateResidencyTicks::UNDEFINED  63861508000                       # Cumulative time (in ticks) in various power states (Tick)
system.pc.fake_com_4.power_state.pwrStateResidencyTicks::UNDEFINED  63861508000                       # Cumulative time (in ticks) in various power states (Tick)
system.pc.fake_floppy.power_state.pwrStateResidencyTicks::UNDEFINED  63861508000                       # Cumulative time (in ticks) in various power states (Tick)
system.pc.pci_host.power_state.pwrStateResidencyTicks::UNDEFINED  63861508000                       # Cumulative time (in ticks) in various power states (Tick)
system.pc.south_bridge.cmos.power_state.pwrStateResidencyTicks::UNDEFINED  63861508000                       # Cumulative time (in ticks) in various power states (Tick)
system.pc.south_bridge.dma1.power_state.pwrStateResidencyTicks::UNDEFINED  63861508000                       # Cumulative time (in ticks) in various power states (Tick)
system.pc.south_bridge.ide.disks0.IdeDisk.dmaReadFullPages            0                       # Number of full page size DMA reads (not PRD). (Count)
system.pc.south_bridge.ide.disks0.IdeDisk.dmaReadBytes            0                       # Number of bytes transfered via DMA reads (not PRD). (Byte)
system.pc.south_bridge.ide.disks0.IdeDisk.dmaReadTxs            0                       # Number of DMA read transactions (not PRD). (Count)
system.pc.south_bridge.ide.disks0.IdeDisk.dmaWriteFullPages            0                       # Number of full page size DMA writes. (Count)
system.pc.south_bridge.ide.disks0.IdeDisk.dmaWriteBytes            0                       # Number of bytes transfered via DMA writes. (Byte)
system.pc.south_bridge.ide.disks0.IdeDisk.dmaWriteTxs            0                       # Number of DMA write transactions. (Count)
system.pc.south_bridge.ide.disks1.IdeDisk.dmaReadFullPages            0                       # Number of full page size DMA reads (not PRD). (Count)
system.pc.south_bridge.ide.disks1.IdeDisk.dmaReadBytes            0                       # Number of bytes transfered via DMA reads (not PRD). (Byte)
system.pc.south_bridge.ide.disks1.IdeDisk.dmaReadTxs            0                       # Number of DMA read transactions (not PRD). (Count)
system.pc.south_bridge.ide.disks1.IdeDisk.dmaWriteFullPages            0                       # Number of full page size DMA writes. (Count)
system.pc.south_bridge.ide.disks1.IdeDisk.dmaWriteBytes            0                       # Number of bytes transfered via DMA writes. (Byte)
system.pc.south_bridge.ide.disks1.IdeDisk.dmaWriteTxs            0                       # Number of DMA write transactions. (Count)
system.pc.south_bridge.ide.power_state.pwrStateResidencyTicks::UNDEFINED  63861508000                       # Cumulative time (in ticks) in various power states (Tick)
system.pc.south_bridge.io_apic.power_state.pwrStateResidencyTicks::UNDEFINED  63861508000                       # Cumulative time (in ticks) in various power states (Tick)
system.pc.south_bridge.keyboard.power_state.pwrStateResidencyTicks::UNDEFINED  63861508000                       # Cumulative time (in ticks) in various power states (Tick)
system.pc.south_bridge.pic1.power_state.pwrStateResidencyTicks::UNDEFINED  63861508000                       # Cumulative time (in ticks) in various power states (Tick)
system.pc.south_bridge.pic2.power_state.pwrStateResidencyTicks::UNDEFINED  63861508000                       # Cumulative time (in ticks) in various power states (Tick)
system.pc.south_bridge.pit.power_state.pwrStateResidencyTicks::UNDEFINED  63861508000                       # Cumulative time (in ticks) in various power states (Tick)
system.pc.south_bridge.speaker.power_state.pwrStateResidencyTicks::UNDEFINED  63861508000                       # Cumulative time (in ticks) in various power states (Tick)
system.workload.inst.arm                            0                       # number of arm instructions executed (Count)
system.workload.inst.quiesce                        0                       # number of quiesce instructions executed (Count)

---------- End Simulation Statistics   ----------
