
---------- Begin Simulation Statistics ----------
simSeconds                                   0.034763                       # Number of seconds simulated (Second)
simTicks                                  34763126640                       # Number of ticks simulated (Tick)
finalTick                                155092983147800                       # Number of ticks from beginning of simulation (restored from checkpoints and never reset) (Tick)
simFreq                                  1000000000000                       # The number of ticks per simulated second ((Tick/Second))
hostSeconds                                   8777.19                       # Real time elapsed on the host (Second)
hostTickRate                                  3960622                       # The number of ticks simulated per host second (ticks/s) ((Tick/Second))
hostMemory                                   19925892                       # Number of bytes of host memory used (Byte)
simInsts                                    181830496                       # Number of instructions simulated (Count)
simOps                                      367176694                       # Number of ops (including micro ops) simulated (Count)
hostInstRate                                    20716                       # Simulator instruction rate (inst/s) ((Count/Second))
hostOpRate                                      41833                       # Simulator op (including micro ops) rate (op/s) ((Count/Second))
system.caches.delayHistogram::bucket_size            8                       # delay histogram for all message (Unspecified)
system.caches.delayHistogram::max_bucket           79                       # delay histogram for all message (Unspecified)
system.caches.delayHistogram::samples        39515970                       # delay histogram for all message (Unspecified)
system.caches.delayHistogram::mean           0.295570                       # delay histogram for all message (Unspecified)
system.caches.delayHistogram::stdev          1.547372                       # delay histogram for all message (Unspecified)
system.caches.delayHistogram             |    38385019     97.14%     97.14% |     1098899      2.78%     99.92% |       30139      0.08%    100.00% |        1391      0.00%    100.00% |         387      0.00%    100.00% |          82      0.00%    100.00% |          16      0.00%    100.00% |          24      0.00%    100.00% |          12      0.00%    100.00% |           1      0.00%    100.00% # delay histogram for all message (Unspecified)
system.caches.delayHistogram::total          39515970                       # delay histogram for all message (Unspecified)
system.caches.m_outstandReqHistSeqr::bucket_size            2                       (Unspecified)
system.caches.m_outstandReqHistSeqr::max_bucket           19                       (Unspecified)
system.caches.m_outstandReqHistSeqr::samples    108214555                       (Unspecified)
system.caches.m_outstandReqHistSeqr::mean     8.974538                       (Unspecified)
system.caches.m_outstandReqHistSeqr::gmean     6.986738                       (Unspecified)
system.caches.m_outstandReqHistSeqr::stdev     5.024087                       (Unspecified)
system.caches.m_outstandReqHistSeqr      |     7880661      7.28%      7.28% |    14818773     13.69%     20.98% |    11518306     10.64%     31.62% |    11278792     10.42%     42.04% |    10595145      9.79%     51.83% |    13056222     12.07%     63.90% |    11211500     10.36%     74.26% |    13338312     12.33%     86.59% |    14516844     13.41%    100.00% |           0      0.00%    100.00% (Unspecified)
system.caches.m_outstandReqHistSeqr::total    108214555                       (Unspecified)
system.caches.m_latencyHistSeqr::bucket_size          512                       (Unspecified)
system.caches.m_latencyHistSeqr::max_bucket         5119                       (Unspecified)
system.caches.m_latencyHistSeqr::samples    108257440                       (Unspecified)
system.caches.m_latencyHistSeqr::mean       30.880663                       (Unspecified)
system.caches.m_latencyHistSeqr::gmean       1.395978                       (Unspecified)
system.caches.m_latencyHistSeqr::stdev     144.621102                       (Unspecified)
system.caches.m_latencyHistSeqr          |   105968538     97.89%     97.89% |     2055907      1.90%     99.78% |      145550      0.13%     99.92% |        5500      0.01%     99.92% |       53101      0.05%     99.97% |       27013      0.02%    100.00% |        1784      0.00%    100.00% |          47      0.00%    100.00% |           0      0.00%    100.00% |           0      0.00%    100.00% (Unspecified)
system.caches.m_latencyHistSeqr::total      108257440                       (Unspecified)
system.caches.m_hitLatencyHistSeqr::bucket_size          256                       (Unspecified)
system.caches.m_hitLatencyHistSeqr::max_bucket         2559                       (Unspecified)
system.caches.m_hitLatencyHistSeqr::samples    102547580                       (Unspecified)
system.caches.m_hitLatencyHistSeqr::mean     1.007590                       (Unspecified)
system.caches.m_hitLatencyHistSeqr::gmean     1.004849                       (Unspecified)
system.caches.m_hitLatencyHistSeqr::stdev     0.646760                       (Unspecified)
system.caches.m_hitLatencyHistSeqr       |   102547494    100.00%    100.00% |          38      0.00%    100.00% |          23      0.00%    100.00% |          21      0.00%    100.00% |           2      0.00%    100.00% |           1      0.00%    100.00% |           0      0.00%    100.00% |           0      0.00%    100.00% |           1      0.00%    100.00% |           0      0.00%    100.00% (Unspecified)
system.caches.m_hitLatencyHistSeqr::total    102547580                       (Unspecified)
system.caches.m_missLatencyHistSeqr::bucket_size          512                       (Unspecified)
system.caches.m_missLatencyHistSeqr::max_bucket         5119                       (Unspecified)
system.caches.m_missLatencyHistSeqr::samples      5709860                       (Unspecified)
system.caches.m_missLatencyHistSeqr::mean   567.393174                       (Unspecified)
system.caches.m_missLatencyHistSeqr::gmean   511.838425                       (Unspecified)
system.caches.m_missLatencyHistSeqr::stdev   304.413240                       (Unspecified)
system.caches.m_missLatencyHistSeqr      |     3421006     59.91%     59.91% |     2055863     36.01%     95.92% |      145547      2.55%     98.47% |        5500      0.10%     98.56% |       53100      0.93%     99.49% |       27013      0.47%     99.97% |        1784      0.03%    100.00% |          47      0.00%    100.00% |           0      0.00%    100.00% |           0      0.00%    100.00% (Unspecified)
system.caches.m_missLatencyHistSeqr::total      5709860                       (Unspecified)
system.caches.delayVCHist.vnet_0::bucket_size            8                       # delay histogram for vnet_0 (Unspecified)
system.caches.delayVCHist.vnet_0::max_bucket           79                       # delay histogram for vnet_0 (Unspecified)
system.caches.delayVCHist.vnet_0::samples     16900396                       # delay histogram for vnet_0 (Unspecified)
system.caches.delayVCHist.vnet_0::mean       0.643085                       # delay histogram for vnet_0 (Unspecified)
system.caches.delayVCHist.vnet_0::stdev      2.248857                       # delay histogram for vnet_0 (Unspecified)
system.caches.delayVCHist.vnet_0         |    15793524     93.45%     93.45% |     1077753      6.38%     99.83% |       28143      0.17%     99.99% |         720      0.00%    100.00% |         152      0.00%    100.00% |          52      0.00%    100.00% |          15      0.00%    100.00% |          24      0.00%    100.00% |          12      0.00%    100.00% |           1      0.00%    100.00% # delay histogram for vnet_0 (Unspecified)
system.caches.delayVCHist.vnet_0::total      16900396                       # delay histogram for vnet_0 (Unspecified)
system.caches.delayVCHist.vnet_1::bucket_size            8                       # delay histogram for vnet_1 (Unspecified)
system.caches.delayVCHist.vnet_1::max_bucket           79                       # delay histogram for vnet_1 (Unspecified)
system.caches.delayVCHist.vnet_1::samples     22508960                       # delay histogram for vnet_1 (Unspecified)
system.caches.delayVCHist.vnet_1::mean       0.036045                       # delay histogram for vnet_1 (Unspecified)
system.caches.delayVCHist.vnet_1::stdev      0.497794                       # delay histogram for vnet_1 (Unspecified)
system.caches.delayVCHist.vnet_1         |    22484881     99.89%     99.89% |       21146      0.09%     99.99% |        1996      0.01%    100.00% |         671      0.00%    100.00% |         235      0.00%    100.00% |          30      0.00%    100.00% |           1      0.00%    100.00% |           0      0.00%    100.00% |           0      0.00%    100.00% |           0      0.00%    100.00% # delay histogram for vnet_1 (Unspecified)
system.caches.delayVCHist.vnet_1::total      22508960                       # delay histogram for vnet_1 (Unspecified)
system.caches.delayVCHist.vnet_2::bucket_size            1                       # delay histogram for vnet_2 (Unspecified)
system.caches.delayVCHist.vnet_2::max_bucket            9                       # delay histogram for vnet_2 (Unspecified)
system.caches.delayVCHist.vnet_2::samples       106614                       # delay histogram for vnet_2 (Unspecified)
system.caches.delayVCHist.vnet_2::mean       0.000244                       # delay histogram for vnet_2 (Unspecified)
system.caches.delayVCHist.vnet_2::stdev      0.022084                       # delay histogram for vnet_2 (Unspecified)
system.caches.delayVCHist.vnet_2         |      106601     99.99%     99.99% |           0      0.00%     99.99% |          13      0.01%    100.00% |           0      0.00%    100.00% |           0      0.00%    100.00% |           0      0.00%    100.00% |           0      0.00%    100.00% |           0      0.00%    100.00% |           0      0.00%    100.00% |           0      0.00%    100.00% # delay histogram for vnet_2 (Unspecified)
system.caches.delayVCHist.vnet_2::total        106614                       # delay histogram for vnet_2 (Unspecified)
system.caches.L1Cache_Controller.Load    |     7747385     12.43%     12.43% |     7803714     12.52%     24.95% |     7791844     12.50%     37.45% |     7839505     12.58%     50.03% |     7765771     12.46%     62.49% |     7817496     12.54%     75.03% |     7809200     12.53%     87.56% |     7754630     12.44%    100.00% (Unspecified)
system.caches.L1Cache_Controller.Load::total     62329545                       (Unspecified)
system.caches.L1Cache_Controller.Ifetch  |     2311436     12.50%     12.50% |     2310921     12.50%     24.99% |     2312078     12.50%     37.50% |     2319644     12.54%     50.04% |     2306770     12.47%     62.51% |     2313068     12.51%     75.02% |     2311564     12.50%     87.52% |     2307894     12.48%    100.00% (Unspecified)
system.caches.L1Cache_Controller.Ifetch::total     18493375                       (Unspecified)
system.caches.L1Cache_Controller.Store   |     3431079     12.51%     12.51% |     3429184     12.50%     25.01% |     3430846     12.51%     37.51% |     3441055     12.54%     50.05% |     3421587     12.47%     62.53% |     3430534     12.50%     75.03% |     3428160     12.50%     87.53% |     3422095     12.47%    100.00% (Unspecified)
system.caches.L1Cache_Controller.Store::total     27434540                       (Unspecified)
system.caches.L1Cache_Controller.Inv     |       13147     12.36%     12.36% |       14458     13.60%     25.96% |       15349     14.43%     40.40% |       16237     15.27%     55.67% |       16210     15.24%     70.91% |       10822     10.18%     81.09% |        9895      9.31%     90.39% |       10216      9.61%    100.00% (Unspecified)
system.caches.L1Cache_Controller.Inv::total       106334                       (Unspecified)
system.caches.L1Cache_Controller.L1_Replacement |      707871     12.64%     12.64% |      698626     12.48%     25.12% |      699360     12.49%     37.61% |      701382     12.52%     50.13% |      697145     12.45%     62.58% |      699333     12.49%     75.07% |      698743     12.48%     87.55% |      697398     12.45%    100.00% (Unspecified)
system.caches.L1Cache_Controller.L1_Replacement::total      5599858                       (Unspecified)
system.caches.L1Cache_Controller.Fwd_GETX |           0      0.00%      0.00% |           1    100.00%    100.00% |           0      0.00%    100.00% |           0      0.00%    100.00% |           0      0.00%    100.00% |           0      0.00%    100.00% |           0      0.00%    100.00% |           0      0.00%    100.00% (Unspecified)
system.caches.L1Cache_Controller.Fwd_GETX::total            1                       (Unspecified)
system.caches.L1Cache_Controller.Fwd_GETS |         236     84.59%     84.59% |           5      1.79%     86.38% |           4      1.43%     87.81% |           8      2.87%     90.68% |          17      6.09%     96.77% |           2      0.72%     97.49% |           5      1.79%     99.28% |           2      0.72%    100.00% (Unspecified)
system.caches.L1Cache_Controller.Fwd_GETS::total          279                       (Unspecified)
system.caches.L1Cache_Controller.Data    |          98    100.00%    100.00% |           0      0.00%    100.00% |           0      0.00%    100.00% |           0      0.00%    100.00% |           0      0.00%    100.00% |           0      0.00%    100.00% |           0      0.00%    100.00% |           0      0.00%    100.00% (Unspecified)
system.caches.L1Cache_Controller.Data::total           98                       (Unspecified)
system.caches.L1Cache_Controller.Data_Exclusive |      565254     12.50%     12.50% |      565181     12.50%     25.00% |      566074     12.52%     37.52% |      567197     12.54%     50.06% |      563538     12.46%     62.52% |      565811     12.51%     75.03% |      565409     12.50%     87.53% |      563687     12.47%    100.00% (Unspecified)
system.caches.L1Cache_Controller.Data_Exclusive::total      4522151                       (Unspecified)
system.caches.L1Cache_Controller.DataS_fromL1 |           8      2.87%      2.87% |         156     55.91%     58.78% |          61     21.86%     80.65% |          26      9.32%     89.96% |           4      1.43%     91.40% |           8      2.87%     94.27% |           7      2.51%     96.77% |           9      3.23%    100.00% (Unspecified)
system.caches.L1Cache_Controller.DataS_fromL1::total          279                       (Unspecified)
system.caches.L1Cache_Controller.Data_all_Acks |      149320     12.58%     12.58% |      148050     12.47%     25.05% |      148037     12.47%     37.52% |      148820     12.54%     50.05% |      148375     12.50%     62.55% |      148236     12.49%     75.04% |      148031     12.47%     87.51% |      148342     12.49%    100.00% (Unspecified)
system.caches.L1Cache_Controller.Data_all_Acks::total      1187211                       (Unspecified)
system.caches.L1Cache_Controller.Ack     |         938    100.00%    100.00% |           0      0.00%    100.00% |           0      0.00%    100.00% |           0      0.00%    100.00% |           0      0.00%    100.00% |           0      0.00%    100.00% |           0      0.00%    100.00% |           0      0.00%    100.00% (Unspecified)
system.caches.L1Cache_Controller.Ack::total          938                       (Unspecified)
system.caches.L1Cache_Controller.Ack_all |         219    100.00%    100.00% |           0      0.00%    100.00% |           0      0.00%    100.00% |           0      0.00%    100.00% |           0      0.00%    100.00% |           0      0.00%    100.00% |           0      0.00%    100.00% |           0      0.00%    100.00% (Unspecified)
system.caches.L1Cache_Controller.Ack_all::total          219                       (Unspecified)
system.caches.L1Cache_Controller.WB_Ack  |      699026     12.65%     12.65% |      688360     12.45%     25.10% |      688213     12.45%     37.55% |      689167     12.47%     50.02% |      685259     12.40%     62.42% |      692753     12.53%     74.95% |      693087     12.54%     87.49% |      691269     12.51%    100.00% (Unspecified)
system.caches.L1Cache_Controller.WB_Ack::total      5527134                       (Unspecified)
system.caches.L1Cache_Controller.NP.Load |      566199     12.50%     12.50% |      565988     12.50%     25.00% |      566612     12.51%     37.51% |      568191     12.54%     50.05% |      564692     12.47%     62.52% |      566547     12.51%     75.03% |      566147     12.50%     87.53% |      564922     12.47%    100.00% (Unspecified)
system.caches.L1Cache_Controller.NP.Load::total      4529298                       (Unspecified)
system.caches.L1Cache_Controller.NP.Ifetch |         574     23.78%     23.78% |         171      7.08%     30.86% |         279     11.56%     42.42% |         285     11.81%     54.23% |         274     11.35%     65.58% |         274     11.35%     76.93% |         274     11.35%     88.28% |         283     11.72%    100.00% (Unspecified)
system.caches.L1Cache_Controller.NP.Ifetch::total         2414                       (Unspecified)
system.caches.L1Cache_Controller.NP.Store |      141332     12.53%     12.53% |      141032     12.50%     25.03% |      141023     12.50%     37.53% |      141441     12.54%     50.07% |      140650     12.47%     62.54% |      141021     12.50%     75.04% |      140817     12.48%     87.53% |      140714     12.47%    100.00% (Unspecified)
system.caches.L1Cache_Controller.NP.Store::total      1128030                       (Unspecified)
system.caches.L1Cache_Controller.NP.Inv  |          49      4.18%      4.18% |         131     11.18%     15.36% |         155     13.23%     28.58% |         175     14.93%     43.52% |         143     12.20%     55.72% |         177     15.10%     70.82% |         171     14.59%     85.41% |         171     14.59%    100.00% (Unspecified)
system.caches.L1Cache_Controller.NP.Inv::total         1172                       (Unspecified)
system.caches.L1Cache_Controller.I.Load  |        1366     11.34%     11.34% |        1721     14.29%     25.63% |        1922     15.96%     41.59% |        1469     12.20%     53.79% |        1251     10.39%     64.17% |        1561     12.96%     77.13% |        1584     13.15%     90.29% |        1170      9.71%    100.00% (Unspecified)
system.caches.L1Cache_Controller.I.Load::total        12044                       (Unspecified)
system.caches.L1Cache_Controller.I.Ifetch |        3625     14.40%     14.40% |        3062     12.17%     26.57% |        3068     12.19%     38.76% |        3074     12.21%     50.97% |        3078     12.23%     63.20% |        3090     12.28%     75.48% |        3088     12.27%     87.75% |        3084     12.25%    100.00% (Unspecified)
system.caches.L1Cache_Controller.I.Ifetch::total        25169                       (Unspecified)
system.caches.L1Cache_Controller.I.Store |        1587     12.39%     12.39% |        1416     11.06%     23.45% |        1270      9.92%     33.37% |        1586     12.39%     45.76% |        1974     15.42%     61.18% |        1564     12.21%     73.39% |        1540     12.03%     85.42% |        1867     14.58%    100.00% (Unspecified)
system.caches.L1Cache_Controller.I.Store::total        12804                       (Unspecified)
system.caches.L1Cache_Controller.I.L1_Replacement |        6071     11.72%     11.72% |        7712     14.89%     26.61% |        8530     16.47%     43.08% |        9531     18.40%     61.48% |        9285     17.93%     79.40% |        4059      7.84%     87.24% |        3108      6.00%     93.24% |        3503      6.76%    100.00% (Unspecified)
system.caches.L1Cache_Controller.I.L1_Replacement::total        51799                       (Unspecified)
system.caches.L1Cache_Controller.S.Load  |       19376     10.79%     10.79% |       30009     16.71%     27.51% |       26381     14.69%     42.20% |       21879     12.19%     54.38% |       20651     11.50%     65.89% |       20801     11.59%     77.47% |       20104     11.20%     88.67% |       20344     11.33%    100.00% (Unspecified)
system.caches.L1Cache_Controller.S.Load::total       179545                       (Unspecified)
system.caches.L1Cache_Controller.S.Ifetch |     2307237     12.49%     12.49% |     2307688     12.50%     24.99% |     2308731     12.50%     37.49% |     2316285     12.54%     50.04% |     2303418     12.47%     62.51% |     2309704     12.51%     75.02% |     2308202     12.50%     87.52% |     2304527     12.48%    100.00% (Unspecified)
system.caches.L1Cache_Controller.S.Ifetch::total     18465792                       (Unspecified)
system.caches.L1Cache_Controller.S.Store |         121    100.00%    100.00% |           0      0.00%    100.00% |           0      0.00%    100.00% |           0      0.00%    100.00% |           0      0.00%    100.00% |           0      0.00%    100.00% |           0      0.00%    100.00% |           0      0.00%    100.00% (Unspecified)
system.caches.L1Cache_Controller.S.Store::total          121                       (Unspecified)
system.caches.L1Cache_Controller.S.Inv   |        3886     14.28%     14.28% |        3387     12.45%     26.73% |        3338     12.27%     39.00% |        3320     12.20%     51.20% |        3342     12.28%     63.49% |        3306     12.15%     75.64% |        3309     12.16%     87.80% |        3319     12.20%    100.00% (Unspecified)
system.caches.L1Cache_Controller.S.Inv::total        27207                       (Unspecified)
system.caches.L1Cache_Controller.S.L1_Replacement |        2774     13.26%     13.26% |        2554     12.21%     25.47% |        2617     12.51%     37.98% |        2684     12.83%     50.81% |        2601     12.43%     63.24% |        2518     12.04%     75.27% |        2548     12.18%     87.45% |        2625     12.55%    100.00% (Unspecified)
system.caches.L1Cache_Controller.S.L1_Replacement::total        20921                       (Unspecified)
system.caches.L1Cache_Controller.E.Load  |     4731808     12.39%     12.39% |     4780006     12.51%     24.90% |     4767706     12.48%     37.38% |     4812640     12.60%     49.98% |     4758196     12.46%     62.44% |     4801528     12.57%     75.01% |     4797895     12.56%     87.57% |     4746321     12.43%    100.00% (Unspecified)
system.caches.L1Cache_Controller.E.Load::total     38196100                       (Unspecified)
system.caches.L1Cache_Controller.E.Store |        1837     14.01%     14.01% |        1780     13.58%     27.59% |        1931     14.73%     42.32% |        1613     12.30%     54.63% |        1249      9.53%     64.15% |        1648     12.57%     76.73% |        1723     13.14%     89.87% |        1328     10.13%    100.00% (Unspecified)
system.caches.L1Cache_Controller.E.Store::total        13109                       (Unspecified)
system.caches.L1Cache_Controller.E.Inv   |        5197     11.38%     11.38% |        7425     16.26%     27.64% |        8163     17.87%     45.51% |        8475     18.56%     64.07% |        5807     12.71%     76.78% |        3553      7.78%     84.56% |        3357      7.35%     91.91% |        3694      8.09%    100.00% (Unspecified)
system.caches.L1Cache_Controller.E.Inv::total        45671                       (Unspecified)
system.caches.L1Cache_Controller.E.L1_Replacement |      545510     12.38%     12.38% |      549436     12.47%     24.86% |      549352     12.47%     37.33% |      550551     12.50%     49.83% |      550060     12.49%     62.31% |      554067     12.58%     74.89% |      553739     12.57%     87.46% |      552196     12.54%    100.00% (Unspecified)
system.caches.L1Cache_Controller.E.L1_Replacement::total      4404911                       (Unspecified)
system.caches.L1Cache_Controller.E.Fwd_GETX |           0      0.00%      0.00% |           1    100.00%    100.00% |           0      0.00%    100.00% |           0      0.00%    100.00% |           0      0.00%    100.00% |           0      0.00%    100.00% |           0      0.00%    100.00% |           0      0.00%    100.00% (Unspecified)
system.caches.L1Cache_Controller.E.Fwd_GETX::total            1                       (Unspecified)
system.caches.L1Cache_Controller.E.Fwd_GETS |          11     20.37%     20.37% |           5      9.26%     29.63% |           4      7.41%     37.04% |           8     14.81%     51.85% |          17     31.48%     83.33% |           2      3.70%     87.04% |           5      9.26%     96.30% |           2      3.70%    100.00% (Unspecified)
system.caches.L1Cache_Controller.E.Fwd_GETS::total           54                       (Unspecified)
system.caches.L1Cache_Controller.M.Load  |     2428636     12.51%     12.51% |     2425990     12.50%     25.01% |     2429223     12.51%     37.52% |     2435326     12.55%     50.07% |     2420981     12.47%     62.54% |     2427059     12.50%     75.04% |     2423470     12.48%     87.52% |     2421873     12.48%    100.00% (Unspecified)
system.caches.L1Cache_Controller.M.Load::total     19412558                       (Unspecified)
system.caches.L1Cache_Controller.M.Store |     3286202     12.50%     12.50% |     3284956     12.50%     25.00% |     3286622     12.51%     37.51% |     3296415     12.54%     50.05% |     3277714     12.47%     62.53% |     3286301     12.50%     75.03% |     3284080     12.50%     87.53% |     3278186     12.47%    100.00% (Unspecified)
system.caches.L1Cache_Controller.M.Store::total     26280476                       (Unspecified)
system.caches.L1Cache_Controller.M.Inv   |        4015     12.44%     12.44% |        3514     10.89%     23.33% |        3680     11.41%     34.74% |        4264     13.22%     47.96% |        6918     21.44%     69.40% |        3786     11.73%     81.13% |        3058      9.48%     90.61% |        3030      9.39%    100.00% (Unspecified)
system.caches.L1Cache_Controller.M.Inv::total        32265                       (Unspecified)
system.caches.L1Cache_Controller.M.L1_Replacement |      153516     13.68%     13.68% |      138924     12.38%     26.06% |      138861     12.37%     38.43% |      138616     12.35%     50.78% |      135199     12.05%     62.83% |      138687     12.36%     75.19% |      139348     12.42%     87.61% |      139073     12.39%    100.00% (Unspecified)
system.caches.L1Cache_Controller.M.L1_Replacement::total      1122224                       (Unspecified)
system.caches.L1Cache_Controller.M.Fwd_GETS |         225    100.00%    100.00% |           0      0.00%    100.00% |           0      0.00%    100.00% |           0      0.00%    100.00% |           0      0.00%    100.00% |           0      0.00%    100.00% |           0      0.00%    100.00% |           0      0.00%    100.00% (Unspecified)
system.caches.L1Cache_Controller.M.Fwd_GETS::total          225                       (Unspecified)
system.caches.L1Cache_Controller.IS.Inv  |           0      0.00%      0.00% |           1      5.26%      5.26% |          13     68.42%     73.68% |           3     15.79%     89.47% |           0      0.00%     89.47% |           0      0.00%     89.47% |           0      0.00%     89.47% |           2     10.53%    100.00% (Unspecified)
system.caches.L1Cache_Controller.IS.Inv::total           19                       (Unspecified)
system.caches.L1Cache_Controller.IS.L1_Replacement |           0      0.00%      0.00% |           0      0.00%      0.00% |           0      0.00%      0.00% |           0      0.00%      0.00% |           0      0.00%      0.00% |           2     66.67%     66.67% |           0      0.00%     66.67% |           1     33.33%    100.00% (Unspecified)
system.caches.L1Cache_Controller.IS.L1_Replacement::total            3                       (Unspecified)
system.caches.L1Cache_Controller.IS.Data_Exclusive |      565254     12.50%     12.50% |      565181     12.50%     25.00% |      566074     12.52%     37.52% |      567197     12.54%     50.06% |      563538     12.46%     62.52% |      565811     12.51%     75.03% |      565409     12.50%     87.53% |      563687     12.47%    100.00% (Unspecified)
system.caches.L1Cache_Controller.IS.Data_Exclusive::total      4522151                       (Unspecified)
system.caches.L1Cache_Controller.IS.DataS_fromL1 |           8      2.87%      2.87% |         156     55.91%     58.78% |          61     21.86%     80.65% |          26      9.32%     89.96% |           4      1.43%     91.40% |           8      2.87%     94.27% |           7      2.51%     96.77% |           9      3.23%    100.00% (Unspecified)
system.caches.L1Cache_Controller.IS.DataS_fromL1::total          279                       (Unspecified)
system.caches.L1Cache_Controller.IS.Data_all_Acks |        6499     13.99%     13.99% |        5601     12.06%     26.05% |        5731     12.34%     38.38% |        5790     12.46%     50.84% |        5751     12.38%     63.22% |        5652     12.17%     75.39% |        5674     12.21%     87.60% |        5760     12.40%    100.00% (Unspecified)
system.caches.L1Cache_Controller.IS.Data_all_Acks::total        46458                       (Unspecified)
system.caches.L1Cache_Controller.IM.Data |          98    100.00%    100.00% |           0      0.00%    100.00% |           0      0.00%    100.00% |           0      0.00%    100.00% |           0      0.00%    100.00% |           0      0.00%    100.00% |           0      0.00%    100.00% |           0      0.00%    100.00% (Unspecified)
system.caches.L1Cache_Controller.IM.Data::total           98                       (Unspecified)
system.caches.L1Cache_Controller.IM.Data_all_Acks |      142821     12.52%     12.52% |      142448     12.49%     25.01% |      142293     12.47%     37.48% |      143027     12.54%     50.02% |      142624     12.50%     62.52% |      142584     12.50%     75.02% |      142357     12.48%     87.50% |      142580     12.50%    100.00% (Unspecified)
system.caches.L1Cache_Controller.IM.Data_all_Acks::total      1140734                       (Unspecified)
system.caches.L1Cache_Controller.SM.Ack  |         938    100.00%    100.00% |           0      0.00%    100.00% |           0      0.00%    100.00% |           0      0.00%    100.00% |           0      0.00%    100.00% |           0      0.00%    100.00% |           0      0.00%    100.00% |           0      0.00%    100.00% (Unspecified)
system.caches.L1Cache_Controller.SM.Ack::total          938                       (Unspecified)
system.caches.L1Cache_Controller.SM.Ack_all |         219    100.00%    100.00% |           0      0.00%    100.00% |           0      0.00%    100.00% |           0      0.00%    100.00% |           0      0.00%    100.00% |           0      0.00%    100.00% |           0      0.00%    100.00% |           0      0.00%    100.00% (Unspecified)
system.caches.L1Cache_Controller.SM.Ack_all::total          219                       (Unspecified)
system.caches.L1Cache_Controller.IS_I.Data_all_Acks |           0      0.00%      0.00% |           1      5.26%      5.26% |          13     68.42%     73.68% |           3     15.79%     89.47% |           0      0.00%     89.47% |           0      0.00%     89.47% |           0      0.00%     89.47% |           2     10.53%    100.00% (Unspecified)
system.caches.L1Cache_Controller.IS_I.Data_all_Acks::total           19                       (Unspecified)
system.caches.L1Cache_Controller.M_I.WB_Ack |      699026     12.65%     12.65% |      688360     12.45%     25.10% |      688213     12.45%     37.55% |      689167     12.47%     50.02% |      685259     12.40%     62.42% |      692753     12.53%     74.95% |      693087     12.54%     87.49% |      691269     12.51%    100.00% (Unspecified)
system.caches.L1Cache_Controller.M_I.WB_Ack::total      5527134                       (Unspecified)
system.caches.Directory_Controller.Fetch |        3381      0.06%      0.06% |     5644841     99.94%    100.00% (Unspecified)
system.caches.Directory_Controller.Fetch::total      5648222                       (Unspecified)
system.caches.Directory_Controller.Data  |          17      0.00%      0.00% |     1174533    100.00%    100.00% (Unspecified)
system.caches.Directory_Controller.Data::total      1174550                       (Unspecified)
system.caches.Directory_Controller.Memory_Data |        3381      0.06%      0.06% |     5644823     99.94%    100.00% (Unspecified)
system.caches.Directory_Controller.Memory_Data::total      5648204                       (Unspecified)
system.caches.Directory_Controller.Memory_Ack |          17      0.00%      0.00% |     1174533    100.00%    100.00% (Unspecified)
system.caches.Directory_Controller.Memory_Ack::total      1174550                       (Unspecified)
system.caches.Directory_Controller.CleanReplacement |        3515      0.08%      0.08% |     4339085     99.92%    100.00% (Unspecified)
system.caches.Directory_Controller.CleanReplacement::total      4342600                       (Unspecified)
system.caches.Directory_Controller.I.Fetch |        3381      0.06%      0.06% |     5644841     99.94%    100.00% (Unspecified)
system.caches.Directory_Controller.I.Fetch::total      5648222                       (Unspecified)
system.caches.Directory_Controller.M.Data |          17      0.00%      0.00% |     1174533    100.00%    100.00% (Unspecified)
system.caches.Directory_Controller.M.Data::total      1174550                       (Unspecified)
system.caches.Directory_Controller.M.CleanReplacement |        3515      0.08%      0.08% |     4339085     99.92%    100.00% (Unspecified)
system.caches.Directory_Controller.M.CleanReplacement::total      4342600                       (Unspecified)
system.caches.Directory_Controller.IM.Memory_Data |        3381      0.06%      0.06% |     5644823     99.94%    100.00% (Unspecified)
system.caches.Directory_Controller.IM.Memory_Data::total      5648204                       (Unspecified)
system.caches.Directory_Controller.MI.Memory_Ack |          17      0.00%      0.00% |     1174533    100.00%    100.00% (Unspecified)
system.caches.Directory_Controller.MI.Memory_Ack::total      1174550                       (Unspecified)
system.caches.L2Cache_Controller.L1_GET_INSTR |        3527     12.77%     12.77% |        4309     15.61%     28.38% |        3332     12.07%     40.45% |        2600      9.42%     49.86% |        3537     12.81%     62.67% |        3528     12.78%     75.45% |        3221     11.67%     87.12% |        3557     12.88%    100.00% (Unspecified)
system.caches.L2Cache_Controller.L1_GET_INSTR::total        27611                       (Unspecified)
system.caches.L2Cache_Controller.L1_GETS |      569943     12.55%     12.55% |      568401     12.52%     25.06% |      567796     12.50%     37.57% |      566976     12.48%     50.05% |      567117     12.49%     62.54% |      566345     12.47%     75.01% |      566722     12.48%     87.49% |      568327     12.51%    100.00% (Unspecified)
system.caches.L2Cache_Controller.L1_GETS::total      4541627                       (Unspecified)
system.caches.L2Cache_Controller.L1_GETX |      142921     12.53%     12.53% |      142712     12.51%     25.04% |      141831     12.43%     37.47% |      142366     12.48%     49.95% |      142304     12.47%     62.42% |      143193     12.55%     74.97% |      142746     12.51%     87.48% |      142798     12.52%    100.00% (Unspecified)
system.caches.L2Cache_Controller.L1_GETX::total      1140871                       (Unspecified)
system.caches.L2Cache_Controller.L1_UPGRADE |           0      0.00%      0.00% |          34     21.52%     21.52% |           0      0.00%     21.52% |           0      0.00%     21.52% |           1      0.63%     22.15% |           0      0.00%     22.15% |         123     77.85%    100.00% |           0      0.00%    100.00% (Unspecified)
system.caches.L2Cache_Controller.L1_UPGRADE::total          158                       (Unspecified)
system.caches.L2Cache_Controller.L1_PUTX |      691180     12.51%     12.51% |      691306     12.51%     25.01% |      689821     12.48%     37.49% |      690525     12.49%     49.99% |      690763     12.50%     62.48% |      691391     12.51%     74.99% |      690940     12.50%     87.49% |      691208     12.51%    100.00% (Unspecified)
system.caches.L2Cache_Controller.L1_PUTX::total      5527134                       (Unspecified)
system.caches.L2Cache_Controller.L2_Replacement |      142890     12.51%     12.51% |      142753     12.49%     25.00% |      142727     12.49%     37.49% |      142810     12.50%     49.99% |      142802     12.50%     62.49% |      142834     12.50%     74.99% |      142815     12.50%     87.49% |      142909     12.51%    100.00% (Unspecified)
system.caches.L2Cache_Controller.L2_Replacement::total      1142540                       (Unspecified)
system.caches.L2Cache_Controller.L2_Replacement_clean |      546930     12.50%     12.50% |      546920     12.50%     25.00% |      546768     12.50%     37.50% |      546690     12.50%     50.00% |      546837     12.50%     62.50% |      546810     12.50%     75.00% |      546801     12.50%     87.50% |      546855     12.50%    100.00% (Unspecified)
system.caches.L2Cache_Controller.L2_Replacement_clean::total      4374611                       (Unspecified)
system.caches.L2Cache_Controller.Mem_Data |      706202     12.50%     12.50% |      706053     12.50%     25.00% |      705873     12.50%     37.50% |      705883     12.50%     50.00% |      706023     12.50%     62.50% |      706026     12.50%     75.00% |      705998     12.50%     87.50% |      706146     12.50%    100.00% (Unspecified)
system.caches.L2Cache_Controller.Mem_Data::total      5648204                       (Unspecified)
system.caches.L2Cache_Controller.Mem_Ack |      689819     12.50%     12.50% |      689673     12.50%     25.00% |      689495     12.50%     37.50% |      689500     12.50%     50.00% |      689639     12.50%     62.50% |      689643     12.50%     75.00% |      689616     12.50%     87.50% |      689764     12.50%    100.00% (Unspecified)
system.caches.L2Cache_Controller.Mem_Ack::total      5517149                       (Unspecified)
system.caches.L2Cache_Controller.WB_Data |        4127     12.70%     12.70% |        4163     12.81%     25.52% |        3934     12.11%     37.62% |        3927     12.09%     49.71% |        3910     12.03%     61.75% |        3968     12.21%     73.96% |        4205     12.94%     86.90% |        4256     13.10%    100.00% (Unspecified)
system.caches.L2Cache_Controller.WB_Data::total        32490                       (Unspecified)
system.caches.L2Cache_Controller.WB_Data_clean |          24     44.44%     44.44% |          24     44.44%     88.89% |           0      0.00%     88.89% |           1      1.85%     90.74% |           2      3.70%     94.44% |           2      3.70%     98.15% |           0      0.00%     98.15% |           1      1.85%    100.00% (Unspecified)
system.caches.L2Cache_Controller.WB_Data_clean::total           54                       (Unspecified)
system.caches.L2Cache_Controller.Ack     |        3326     14.22%     14.22% |        3217     13.75%     27.97% |        2850     12.18%     40.16% |        2311      9.88%     50.04% |        3126     13.36%     63.40% |        3225     13.79%     77.19% |        2856     12.21%     89.40% |        2479     10.60%    100.00% (Unspecified)
system.caches.L2Cache_Controller.Ack::total        23390                       (Unspecified)
system.caches.L2Cache_Controller.Ack_all |        6264     12.62%     12.62% |        6350     12.79%     25.41% |        6191     12.47%     37.88% |        6181     12.45%     50.33% |        6238     12.57%     62.90% |        6317     12.72%     75.62% |        6060     12.21%     87.83% |        6042     12.17%    100.00% (Unspecified)
system.caches.L2Cache_Controller.Ack_all::total        49643                       (Unspecified)
system.caches.L2Cache_Controller.Unblock |          93     33.33%     33.33% |          58     20.79%     54.12% |           0      0.00%     54.12% |           1      0.36%     54.48% |           3      1.08%     55.56% |           2      0.72%     56.27% |         121     43.37%     99.64% |           1      0.36%    100.00% (Unspecified)
system.caches.L2Cache_Controller.Unblock::total          279                       (Unspecified)
system.caches.L2Cache_Controller.Exclusive_Unblock |      708295     12.51%     12.51% |      708510     12.51%     25.02% |      706677     12.48%     37.50% |      707449     12.49%     49.99% |      707605     12.50%     62.48% |      708356     12.51%     74.99% |      707941     12.50%     87.49% |      708271     12.51%    100.00% (Unspecified)
system.caches.L2Cache_Controller.Exclusive_Unblock::total      5663104                       (Unspecified)
system.caches.L2Cache_Controller.NP.L1_GET_INSTR |         510     13.66%     13.66% |         501     13.42%     27.08% |         476     12.75%     39.82% |         380     10.18%     50.00% |         494     13.23%     63.23% |         480     12.85%     76.08% |         446     11.94%     88.03% |         447     11.97%    100.00% (Unspecified)
system.caches.L2Cache_Controller.NP.L1_GET_INSTR::total         3734                       (Unspecified)
system.caches.L2Cache_Controller.NP.L1_GETS |      563878     12.50%     12.50% |      563777     12.50%     25.00% |      563722     12.50%     37.50% |      563754     12.50%     50.00% |      563774     12.50%     62.50% |      563724     12.50%     75.00% |      563625     12.50%     87.50% |      563828     12.50%    100.00% (Unspecified)
system.caches.L2Cache_Controller.NP.L1_GETS::total      4510082                       (Unspecified)
system.caches.L2Cache_Controller.NP.L1_GETX |      141816     12.50%     12.50% |      141779     12.50%     25.00% |      141681     12.49%     37.49% |      141750     12.50%     49.98% |      141755     12.50%     62.48% |      141824     12.50%     74.98% |      141929     12.51%     87.49% |      141873     12.51%    100.00% (Unspecified)
system.caches.L2Cache_Controller.NP.L1_GETX::total      1134407                       (Unspecified)
system.caches.L2Cache_Controller.SS.L1_GET_INSTR |        2235     13.06%     13.06% |        2934     17.15%     30.21% |        2105     12.30%     42.51% |        1494      8.73%     51.24% |        1951     11.40%     62.65% |        1870     10.93%     73.58% |        2029     11.86%     85.44% |        2492     14.56%    100.00% (Unspecified)
system.caches.L2Cache_Controller.SS.L1_GET_INSTR::total        17110                       (Unspecified)
system.caches.L2Cache_Controller.SS.L1_GETS |        4408     23.54%     23.54% |        2522     13.47%     37.02% |        2924     15.62%     52.63% |        1866      9.97%     62.60% |        1799      9.61%     72.21% |        1113      5.94%     78.15% |        1291      6.90%     85.05% |        2799     14.95%    100.00% (Unspecified)
system.caches.L2Cache_Controller.SS.L1_GETS::total        18722                       (Unspecified)
system.caches.L2Cache_Controller.SS.L1_GETX |          63     64.29%     64.29% |           0      0.00%     64.29% |           0      0.00%     64.29% |           0      0.00%     64.29% |           0      0.00%     64.29% |           0      0.00%     64.29% |          35     35.71%    100.00% |           0      0.00%    100.00% (Unspecified)
system.caches.L2Cache_Controller.SS.L1_GETX::total           98                       (Unspecified)
system.caches.L2Cache_Controller.SS.L1_UPGRADE |           0      0.00%      0.00% |          34     28.10%     28.10% |           0      0.00%     28.10% |           0      0.00%     28.10% |           1      0.83%     28.93% |           0      0.00%     28.93% |          86     71.07%    100.00% |           0      0.00%    100.00% (Unspecified)
system.caches.L2Cache_Controller.SS.L1_UPGRADE::total          121                       (Unspecified)
system.caches.L2Cache_Controller.SS.L2_Replacement |           6    100.00%    100.00% |           0      0.00%    100.00% |           0      0.00%    100.00% |           0      0.00%    100.00% |           0      0.00%    100.00% |           0      0.00%    100.00% |           0      0.00%    100.00% |           0      0.00%    100.00% (Unspecified)
system.caches.L2Cache_Controller.SS.L2_Replacement::total            6                       (Unspecified)
system.caches.L2Cache_Controller.SS.L2_Replacement_clean |         557     14.04%     14.04% |         549     13.84%     27.89% |         495     12.48%     40.37% |         400     10.09%     50.45% |         517     13.04%     63.49% |         515     12.99%     76.48% |         464     11.70%     88.17% |         469     11.83%    100.00% (Unspecified)
system.caches.L2Cache_Controller.SS.L2_Replacement_clean::total         3966                       (Unspecified)
system.caches.L2Cache_Controller.M.L1_GET_INSTR |           0      0.00%      0.00% |           3     18.75%     18.75% |           3     18.75%     37.50% |           0      0.00%     37.50% |           2     12.50%     50.00% |           3     18.75%     68.75% |           3     18.75%     87.50% |           2     12.50%    100.00% (Unspecified)
system.caches.L2Cache_Controller.M.L1_GET_INSTR::total           16                       (Unspecified)
system.caches.L2Cache_Controller.M.L1_GETS |        1508     12.44%     12.44% |        2000     16.50%     28.94% |        1137      9.38%     38.32% |        1338     11.04%     49.36% |        1535     12.66%     62.02% |        1457     12.02%     74.04% |        1494     12.32%     86.36% |        1653     13.64%    100.00% (Unspecified)
system.caches.L2Cache_Controller.M.L1_GETS::total        12122                       (Unspecified)
system.caches.L2Cache_Controller.M.L1_GETX |        1038     16.40%     16.40% |         931     14.71%     31.12% |         145      2.29%     33.41% |         612      9.67%     43.08% |         540      8.53%     51.61% |        1366     21.59%     73.20% |         774     12.23%     85.43% |         922     14.57%    100.00% (Unspecified)
system.caches.L2Cache_Controller.M.L1_GETX::total         6328                       (Unspecified)
system.caches.L2Cache_Controller.M.L2_Replacement |      142845     12.51%     12.51% |      142717     12.49%     25.00% |      142709     12.49%     37.49% |      142780     12.50%     49.99% |      142778     12.50%     62.49% |      142795     12.50%     74.99% |      142787     12.50%     87.49% |      142864     12.51%    100.00% (Unspecified)
system.caches.L2Cache_Controller.M.L2_Replacement::total      1142275                       (Unspecified)
system.caches.L2Cache_Controller.M.L2_Replacement_clean |      536653     12.50%     12.50% |      536477     12.50%     25.00% |      536661     12.50%     37.50% |      536612     12.50%     50.00% |      536714     12.50%     62.50% |      536564     12.50%     75.00% |      536685     12.50%     87.50% |      536602     12.50%    100.00% (Unspecified)
system.caches.L2Cache_Controller.M.L2_Replacement_clean::total      4292968                       (Unspecified)
system.caches.L2Cache_Controller.MT.L1_GETS |          93     33.33%     33.33% |          58     20.79%     54.12% |           0      0.00%     54.12% |           1      0.36%     54.48% |           3      1.08%     55.56% |           2      0.72%     56.27% |         121     43.37%     99.64% |           1      0.36%    100.00% (Unspecified)
system.caches.L2Cache_Controller.MT.L1_GETS::total          279                       (Unspecified)
system.caches.L2Cache_Controller.MT.L1_GETX |           1    100.00%    100.00% |           0      0.00%    100.00% |           0      0.00%    100.00% |           0      0.00%    100.00% |           0      0.00%    100.00% |           0      0.00%    100.00% |           0      0.00%    100.00% |           0      0.00%    100.00% (Unspecified)
system.caches.L2Cache_Controller.MT.L1_GETX::total            1                       (Unspecified)
system.caches.L2Cache_Controller.MT.L1_PUTX |      691180     12.51%     12.51% |      691306     12.51%     25.01% |      689821     12.48%     37.49% |      690525     12.49%     49.99% |      690763     12.50%     62.48% |      691391     12.51%     74.99% |      690940     12.50%     87.49% |      691208     12.51%    100.00% (Unspecified)
system.caches.L2Cache_Controller.MT.L1_PUTX::total      5527134                       (Unspecified)
system.caches.L2Cache_Controller.MT.L2_Replacement |          39     15.06%     15.06% |          36     13.90%     28.96% |          18      6.95%     35.91% |          30     11.58%     47.49% |          24      9.27%     56.76% |          39     15.06%     71.81% |          28     10.81%     82.63% |          45     17.37%    100.00% (Unspecified)
system.caches.L2Cache_Controller.MT.L2_Replacement::total          259                       (Unspecified)
system.caches.L2Cache_Controller.MT.L2_Replacement_clean |        9720     12.51%     12.51% |        9894     12.74%     25.25% |        9612     12.37%     37.63% |        9678     12.46%     50.08% |        9606     12.37%     62.45% |        9731     12.53%     74.98% |        9652     12.43%     87.40% |        9784     12.60%    100.00% (Unspecified)
system.caches.L2Cache_Controller.MT.L2_Replacement_clean::total        77677                       (Unspecified)
system.caches.L2Cache_Controller.M_I.L1_GET_INSTR |           0      0.00%      0.00% |           0      0.00%      0.00% |           0      0.00%      0.00% |           0      0.00%      0.00% |          16     57.14%     57.14% |          12     42.86%    100.00% |           0      0.00%    100.00% |           0      0.00%    100.00% (Unspecified)
system.caches.L2Cache_Controller.M_I.L1_GET_INSTR::total           28                       (Unspecified)
system.caches.L2Cache_Controller.M_I.L1_GETS |           4      6.15%      6.15% |           2      3.08%      9.23% |           5      7.69%     16.92% |           6      9.23%     26.15% |           6      9.23%     35.38% |           4      6.15%     41.54% |           7     10.77%     52.31% |          31     47.69%    100.00% (Unspecified)
system.caches.L2Cache_Controller.M_I.L1_GETS::total           65                       (Unspecified)
system.caches.L2Cache_Controller.M_I.L1_GETX |           3      8.11%      8.11% |           2      5.41%     13.51% |           5     13.51%     27.03% |           4     10.81%     37.84% |           9     24.32%     62.16% |           3      8.11%     70.27% |           8     21.62%     91.89% |           3      8.11%    100.00% (Unspecified)
system.caches.L2Cache_Controller.M_I.L1_GETX::total           37                       (Unspecified)
system.caches.L2Cache_Controller.M_I.Mem_Ack |      689819     12.50%     12.50% |      689673     12.50%     25.00% |      689495     12.50%     37.50% |      689500     12.50%     50.00% |      689639     12.50%     62.50% |      689643     12.50%     75.00% |      689616     12.50%     87.50% |      689764     12.50%    100.00% (Unspecified)
system.caches.L2Cache_Controller.M_I.Mem_Ack::total      5517149                       (Unspecified)
system.caches.L2Cache_Controller.MT_I.WB_Data |          39     15.29%     15.29% |          36     14.12%     29.41% |          18      7.06%     36.47% |          29     11.37%     47.84% |          23      9.02%     56.86% |          38     14.90%     71.76% |          27     10.59%     82.35% |          45     17.65%    100.00% (Unspecified)
system.caches.L2Cache_Controller.MT_I.WB_Data::total          255                       (Unspecified)
system.caches.L2Cache_Controller.MT_I.Ack_all |           0      0.00%      0.00% |           0      0.00%      0.00% |           0      0.00%      0.00% |           1     25.00%     25.00% |           1     25.00%     50.00% |           1     25.00%     75.00% |           1     25.00%    100.00% |           0      0.00%    100.00% (Unspecified)
system.caches.L2Cache_Controller.MT_I.Ack_all::total            4                       (Unspecified)
system.caches.L2Cache_Controller.MCT_I.WB_Data |        4019     12.56%     12.56% |        4093     12.79%     25.34% |        3916     12.23%     37.58% |        3898     12.18%     49.75% |        3886     12.14%     61.89% |        3930     12.28%     74.17% |        4057     12.67%     86.84% |        4211     13.16%    100.00% (Unspecified)
system.caches.L2Cache_Controller.MCT_I.WB_Data::total        32010                       (Unspecified)
system.caches.L2Cache_Controller.MCT_I.Ack_all |        5701     12.48%     12.48% |        5801     12.70%     25.19% |        5696     12.47%     37.66% |        5780     12.66%     50.32% |        5720     12.53%     62.84% |        5801     12.70%     75.54% |        5595     12.25%     87.80% |        5573     12.20%    100.00% (Unspecified)
system.caches.L2Cache_Controller.MCT_I.Ack_all::total        45667                       (Unspecified)
system.caches.L2Cache_Controller.I_I.Ack |        3284     14.07%     14.07% |        3217     13.78%     27.84% |        2850     12.21%     40.05% |        2311      9.90%     49.95% |        3126     13.39%     63.34% |        3225     13.81%     77.15% |        2856     12.23%     89.38% |        2479     10.62%    100.00% (Unspecified)
system.caches.L2Cache_Controller.I_I.Ack::total        23348                       (Unspecified)
system.caches.L2Cache_Controller.I_I.Ack_all |         557     14.04%     14.04% |         549     13.84%     27.89% |         495     12.48%     40.37% |         400     10.09%     50.45% |         517     13.04%     63.49% |         515     12.99%     76.48% |         464     11.70%     88.17% |         469     11.83%    100.00% (Unspecified)
system.caches.L2Cache_Controller.I_I.Ack_all::total         3966                       (Unspecified)
system.caches.L2Cache_Controller.S_I.Ack |          42    100.00%    100.00% |           0      0.00%    100.00% |           0      0.00%    100.00% |           0      0.00%    100.00% |           0      0.00%    100.00% |           0      0.00%    100.00% |           0      0.00%    100.00% |           0      0.00%    100.00% (Unspecified)
system.caches.L2Cache_Controller.S_I.Ack::total           42                       (Unspecified)
system.caches.L2Cache_Controller.S_I.Ack_all |           6    100.00%    100.00% |           0      0.00%    100.00% |           0      0.00%    100.00% |           0      0.00%    100.00% |           0      0.00%    100.00% |           0      0.00%    100.00% |           0      0.00%    100.00% |           0      0.00%    100.00% (Unspecified)
system.caches.L2Cache_Controller.S_I.Ack_all::total            6                       (Unspecified)
system.caches.L2Cache_Controller.ISS.L1_GETS |           7     19.44%     19.44% |           7     19.44%     38.89% |           2      5.56%     44.44% |           4     11.11%     55.56% |           0      0.00%     55.56% |          13     36.11%     91.67% |           0      0.00%     91.67% |           3      8.33%    100.00% (Unspecified)
system.caches.L2Cache_Controller.ISS.L1_GETS::total           36                       (Unspecified)
system.caches.L2Cache_Controller.ISS.Mem_Data |      563869     12.50%     12.50% |      563766     12.50%     25.00% |      563714     12.50%     37.50% |      563749     12.50%     50.00% |      563774     12.50%     62.50% |      563710     12.50%     75.00% |      563624     12.50%     87.50% |      563823     12.50%    100.00% (Unspecified)
system.caches.L2Cache_Controller.ISS.Mem_Data::total      4510029                       (Unspecified)
system.caches.L2Cache_Controller.IS.L1_GET_INSTR |         782     11.63%     11.63% |         871     12.96%     24.59% |         748     11.13%     35.71% |         726     10.80%     46.51% |        1074     15.98%     62.49% |        1163     17.30%     79.79% |         743     11.05%     90.84% |         616      9.16%    100.00% (Unspecified)
system.caches.L2Cache_Controller.IS.L1_GET_INSTR::total         6723                       (Unspecified)
system.caches.L2Cache_Controller.IS.L1_GETS |          25     25.00%     25.00% |          18     18.00%     43.00% |           6      6.00%     49.00% |           7      7.00%     56.00% |           0      0.00%     56.00% |          32     32.00%     88.00% |           0      0.00%     88.00% |          12     12.00%    100.00% (Unspecified)
system.caches.L2Cache_Controller.IS.L1_GETS::total          100                       (Unspecified)
system.caches.L2Cache_Controller.IS.Mem_Data |         517     13.71%     13.71% |         508     13.47%     27.19% |         478     12.68%     39.87% |         384     10.19%     50.05% |         494     13.10%     63.16% |         493     13.08%     76.23% |         446     11.83%     88.06% |         450     11.94%    100.00% (Unspecified)
system.caches.L2Cache_Controller.IS.Mem_Data::total         3770                       (Unspecified)
system.caches.L2Cache_Controller.IM.Mem_Data |      141816     12.50%     12.50% |      141779     12.50%     25.00% |      141681     12.49%     37.49% |      141750     12.50%     49.98% |      141755     12.50%     62.48% |      141823     12.50%     74.98% |      141928     12.51%     87.49% |      141873     12.51%    100.00% (Unspecified)
system.caches.L2Cache_Controller.IM.Mem_Data::total      1134405                       (Unspecified)
system.caches.L2Cache_Controller.SS_MB.L1_GETS |           0      0.00%      0.00% |           0      0.00%      0.00% |           0      0.00%      0.00% |           0      0.00%      0.00% |           0      0.00%      0.00% |           0      0.00%      0.00% |         129    100.00%    100.00% |           0      0.00%    100.00% (Unspecified)
system.caches.L2Cache_Controller.SS_MB.L1_GETS::total          129                       (Unspecified)
system.caches.L2Cache_Controller.SS_MB.Exclusive_Unblock |          63     28.77%     28.77% |          34     15.53%     44.29% |           0      0.00%     44.29% |           0      0.00%     44.29% |           1      0.46%     44.75% |           0      0.00%     44.75% |         121     55.25%    100.00% |           0      0.00%    100.00% (Unspecified)
system.caches.L2Cache_Controller.SS_MB.Exclusive_Unblock::total          219                       (Unspecified)
system.caches.L2Cache_Controller.MT_MB.Exclusive_Unblock |      708232     12.51%     12.51% |      708476     12.51%     25.02% |      706677     12.48%     37.50% |      707449     12.49%     49.99% |      707604     12.50%     62.48% |      708356     12.51%     74.99% |      707820     12.50%     87.49% |      708271     12.51%    100.00% (Unspecified)
system.caches.L2Cache_Controller.MT_MB.Exclusive_Unblock::total      5662885                       (Unspecified)
system.caches.L2Cache_Controller.MT_IIB.L1_GETS |          20     21.98%     21.98% |          16     17.58%     39.56% |           0      0.00%     39.56% |           0      0.00%     39.56% |           0      0.00%     39.56% |           0      0.00%     39.56% |          55     60.44%    100.00% |           0      0.00%    100.00% (Unspecified)
system.caches.L2Cache_Controller.MT_IIB.L1_GETS::total           91                       (Unspecified)
system.caches.L2Cache_Controller.MT_IIB.WB_Data |          69     30.67%     30.67% |          34     15.11%     45.78% |           0      0.00%     45.78% |           0      0.00%     45.78% |           1      0.44%     46.22% |           0      0.00%     46.22% |         121     53.78%    100.00% |           0      0.00%    100.00% (Unspecified)
system.caches.L2Cache_Controller.MT_IIB.WB_Data::total          225                       (Unspecified)
system.caches.L2Cache_Controller.MT_IIB.WB_Data_clean |          24     44.44%     44.44% |          24     44.44%     88.89% |           0      0.00%     88.89% |           1      1.85%     90.74% |           2      3.70%     94.44% |           2      3.70%     98.15% |           0      0.00%     98.15% |           1      1.85%    100.00% (Unspecified)
system.caches.L2Cache_Controller.MT_IIB.WB_Data_clean::total           54                       (Unspecified)
system.caches.L2Cache_Controller.MT_SB.L1_GETS |           0      0.00%      0.00% |           1    100.00%    100.00% |           0      0.00%    100.00% |           0      0.00%    100.00% |           0      0.00%    100.00% |           0      0.00%    100.00% |           0      0.00%    100.00% |           0      0.00%    100.00% (Unspecified)
system.caches.L2Cache_Controller.MT_SB.L1_GETS::total            1                       (Unspecified)
system.caches.L2Cache_Controller.MT_SB.L1_UPGRADE |           0      0.00%      0.00% |           0      0.00%      0.00% |           0      0.00%      0.00% |           0      0.00%      0.00% |           0      0.00%      0.00% |           0      0.00%      0.00% |          37    100.00%    100.00% |           0      0.00%    100.00% (Unspecified)
system.caches.L2Cache_Controller.MT_SB.L1_UPGRADE::total           37                       (Unspecified)
system.caches.L2Cache_Controller.MT_SB.Unblock |          93     33.33%     33.33% |          58     20.79%     54.12% |           0      0.00%     54.12% |           1      0.36%     54.48% |           3      1.08%     55.56% |           2      0.72%     56.27% |         121     43.37%     99.64% |           1      0.36%    100.00% (Unspecified)
system.caches.L2Cache_Controller.MT_SB.Unblock::total          279                       (Unspecified)
system.caches.RequestType.LD.latency_hist_seqr::bucket_size          512                       (Unspecified)
system.caches.RequestType.LD.latency_hist_seqr::max_bucket         5119                       (Unspecified)
system.caches.RequestType.LD.latency_hist_seqr::samples     62329527                       (Unspecified)
system.caches.RequestType.LD.latency_hist_seqr::mean    42.363878                       (Unspecified)
system.caches.RequestType.LD.latency_hist_seqr::gmean     1.578596                       (Unspecified)
system.caches.RequestType.LD.latency_hist_seqr::stdev   168.748423                       (Unspecified)
system.caches.RequestType.LD.latency_hist_seqr |    60498398     97.06%     97.06% |     1644966      2.64%     99.70% |      116294      0.19%     99.89% |        4507      0.01%     99.90% |       42228      0.07%     99.96% |       21690      0.03%    100.00% |        1406      0.00%    100.00% |          38      0.00%    100.00% |           0      0.00%    100.00% |           0      0.00%    100.00% (Unspecified)
system.caches.RequestType.LD.latency_hist_seqr::total     62329527                       (Unspecified)
system.caches.RequestType.LD.hit_latency_hist_seqr::bucket_size            1                       (Unspecified)
system.caches.RequestType.LD.hit_latency_hist_seqr::max_bucket            9                       (Unspecified)
system.caches.RequestType.LD.hit_latency_hist_seqr::samples     57788203                       (Unspecified)
system.caches.RequestType.LD.hit_latency_hist_seqr::mean     1.001992                       (Unspecified)
system.caches.RequestType.LD.hit_latency_hist_seqr::gmean     1.001382                       (Unspecified)
system.caches.RequestType.LD.hit_latency_hist_seqr::stdev     0.044588                       (Unspecified)
system.caches.RequestType.LD.hit_latency_hist_seqr |           0      0.00%      0.00% |    57673087     99.80%     99.80% |      115116      0.20%    100.00% |           0      0.00%    100.00% |           0      0.00%    100.00% |           0      0.00%    100.00% |           0      0.00%    100.00% |           0      0.00%    100.00% |           0      0.00%    100.00% |           0      0.00%    100.00% (Unspecified)
system.caches.RequestType.LD.hit_latency_hist_seqr::total     57788203                       (Unspecified)
system.caches.RequestType.LD.miss_latency_hist_seqr::bucket_size          512                       (Unspecified)
system.caches.RequestType.LD.miss_latency_hist_seqr::max_bucket         5119                       (Unspecified)
system.caches.RequestType.LD.miss_latency_hist_seqr::samples      4541324                       (Unspecified)
system.caches.RequestType.LD.miss_latency_hist_seqr::mean   568.692561                       (Unspecified)
system.caches.RequestType.LD.miss_latency_hist_seqr::gmean   517.168359                       (Unspecified)
system.caches.RequestType.LD.miss_latency_hist_seqr::stdev   303.382209                       (Unspecified)
system.caches.RequestType.LD.miss_latency_hist_seqr |     2710195     59.68%     59.68% |     1644966     36.22%     95.90% |      116294      2.56%     98.46% |        4507      0.10%     98.56% |       42228      0.93%     99.49% |       21690      0.48%     99.97% |        1406      0.03%    100.00% |          38      0.00%    100.00% |           0      0.00%    100.00% |           0      0.00%    100.00% (Unspecified)
system.caches.RequestType.LD.miss_latency_hist_seqr::total      4541324                       (Unspecified)
system.caches.RequestType.ST.latency_hist_seqr::bucket_size          512                       (Unspecified)
system.caches.RequestType.ST.latency_hist_seqr::max_bucket         5119                       (Unspecified)
system.caches.RequestType.ST.latency_hist_seqr::samples     27269760                       (Unspecified)
system.caches.RequestType.ST.latency_hist_seqr::mean    24.953106                       (Unspecified)
system.caches.RequestType.ST.latency_hist_seqr::gmean     1.317902                       (Unspecified)
system.caches.RequestType.ST.latency_hist_seqr::stdev   130.230928                       (Unspecified)
system.caches.RequestType.ST.latency_hist_seqr |    26812681     98.32%     98.32% |      410356      1.50%     99.83% |       29165      0.11%     99.94% |         979      0.00%     99.94% |       10870      0.04%     99.98% |        5322      0.02%    100.00% |         378      0.00%    100.00% |           9      0.00%    100.00% |           0      0.00%    100.00% |           0      0.00%    100.00% (Unspecified)
system.caches.RequestType.ST.latency_hist_seqr::total     27269760                       (Unspecified)
system.caches.RequestType.ST.hit_latency_hist_seqr::bucket_size          128                       (Unspecified)
system.caches.RequestType.ST.hit_latency_hist_seqr::max_bucket         1279                       (Unspecified)
system.caches.RequestType.ST.hit_latency_hist_seqr::samples     26132441                       (Unspecified)
system.caches.RequestType.ST.hit_latency_hist_seqr::mean     1.022495                       (Unspecified)
system.caches.RequestType.ST.hit_latency_hist_seqr::gmean     1.015388                       (Unspecified)
system.caches.RequestType.ST.hit_latency_hist_seqr::stdev     0.520828                       (Unspecified)
system.caches.RequestType.ST.hit_latency_hist_seqr |    26132411    100.00%    100.00% |          14      0.00%    100.00% |           6      0.00%    100.00% |           2      0.00%    100.00% |           2      0.00%    100.00% |           0      0.00%    100.00% |           5      0.00%    100.00% |           1      0.00%    100.00% |           0      0.00%    100.00% |           0      0.00%    100.00% (Unspecified)
system.caches.RequestType.ST.hit_latency_hist_seqr::total     26132441                       (Unspecified)
system.caches.RequestType.ST.miss_latency_hist_seqr::bucket_size          512                       (Unspecified)
system.caches.RequestType.ST.miss_latency_hist_seqr::max_bucket         5119                       (Unspecified)
system.caches.RequestType.ST.miss_latency_hist_seqr::samples      1137319                       (Unspecified)
system.caches.RequestType.ST.miss_latency_hist_seqr::mean   574.812286                       (Unspecified)
system.caches.RequestType.ST.miss_latency_hist_seqr::gmean   527.331419                       (Unspecified)
system.caches.RequestType.ST.miss_latency_hist_seqr::stdev   301.904540                       (Unspecified)
system.caches.RequestType.ST.miss_latency_hist_seqr |      680248     59.81%     59.81% |      410348     36.08%     95.89% |       29165      2.56%     98.46% |         979      0.09%     98.54% |       10870      0.96%     99.50% |        5322      0.47%     99.97% |         378      0.03%    100.00% |           9      0.00%    100.00% |           0      0.00%    100.00% |           0      0.00%    100.00% (Unspecified)
system.caches.RequestType.ST.miss_latency_hist_seqr::total      1137319                       (Unspecified)
system.caches.RequestType.IFETCH.latency_hist_seqr::bucket_size          512                       (Unspecified)
system.caches.RequestType.IFETCH.latency_hist_seqr::max_bucket         5119                       (Unspecified)
system.caches.RequestType.IFETCH.latency_hist_seqr::samples     18493375                       (Unspecified)
system.caches.RequestType.IFETCH.latency_hist_seqr::mean     1.168849                       (Unspecified)
system.caches.RequestType.IFETCH.latency_hist_seqr::gmean     1.005564                       (Unspecified)
system.caches.RequestType.IFETCH.latency_hist_seqr::stdev     7.579869                       (Unspecified)
system.caches.RequestType.IFETCH.latency_hist_seqr |    18492853    100.00%    100.00% |         431      0.00%    100.00% |          74      0.00%    100.00% |          14      0.00%    100.00% |           2      0.00%    100.00% |           1      0.00%    100.00% |           0      0.00%    100.00% |           0      0.00%    100.00% |           0      0.00%    100.00% |           0      0.00%    100.00% (Unspecified)
system.caches.RequestType.IFETCH.latency_hist_seqr::total     18493375                       (Unspecified)
system.caches.RequestType.IFETCH.hit_latency_hist_seqr::bucket_size            1                       (Unspecified)
system.caches.RequestType.IFETCH.hit_latency_hist_seqr::max_bucket            9                       (Unspecified)
system.caches.RequestType.IFETCH.hit_latency_hist_seqr::samples     18465792                       (Unspecified)
system.caches.RequestType.IFETCH.hit_latency_hist_seqr::mean     1.000001                       (Unspecified)
system.caches.RequestType.IFETCH.hit_latency_hist_seqr::gmean     1.000000                       (Unspecified)
system.caches.RequestType.IFETCH.hit_latency_hist_seqr::stdev     0.000736                       (Unspecified)
system.caches.RequestType.IFETCH.hit_latency_hist_seqr |           0      0.00%      0.00% |    18465782    100.00%    100.00% |          10      0.00%    100.00% |           0      0.00%    100.00% |           0      0.00%    100.00% |           0      0.00%    100.00% |           0      0.00%    100.00% |           0      0.00%    100.00% |           0      0.00%    100.00% |           0      0.00%    100.00% (Unspecified)
system.caches.RequestType.IFETCH.hit_latency_hist_seqr::total     18465792                       (Unspecified)
system.caches.RequestType.IFETCH.miss_latency_hist_seqr::bucket_size          512                       (Unspecified)
system.caches.RequestType.IFETCH.miss_latency_hist_seqr::max_bucket         5119                       (Unspecified)
system.caches.RequestType.IFETCH.miss_latency_hist_seqr::samples        27583                       (Unspecified)
system.caches.RequestType.IFETCH.miss_latency_hist_seqr::mean   114.206939                       (Unspecified)
system.caches.RequestType.IFETCH.miss_latency_hist_seqr::gmean    41.264570                       (Unspecified)
system.caches.RequestType.IFETCH.miss_latency_hist_seqr::stdev   160.391017                       (Unspecified)
system.caches.RequestType.IFETCH.miss_latency_hist_seqr |       27061     98.11%     98.11% |         431      1.56%     99.67% |          74      0.27%     99.94% |          14      0.05%     99.99% |           2      0.01%    100.00% |           1      0.00%    100.00% |           0      0.00%    100.00% |           0      0.00%    100.00% |           0      0.00%    100.00% |           0      0.00%    100.00% (Unspecified)
system.caches.RequestType.IFETCH.miss_latency_hist_seqr::total        27583                       (Unspecified)
system.caches.RequestType.RMW_Read.latency_hist_seqr::bucket_size          256                       (Unspecified)
system.caches.RequestType.RMW_Read.latency_hist_seqr::max_bucket         2559                       (Unspecified)
system.caches.RequestType.RMW_Read.latency_hist_seqr::samples       160730                       (Unspecified)
system.caches.RequestType.RMW_Read.latency_hist_seqr::mean     2.652013                       (Unspecified)
system.caches.RequestType.RMW_Read.latency_hist_seqr::gmean     1.180018                       (Unspecified)
system.caches.RequestType.RMW_Read.latency_hist_seqr::stdev    28.360370                       (Unspecified)
system.caches.RequestType.RMW_Read.latency_hist_seqr |      160407     99.80%     99.80% |         168      0.10%     99.90% |          97      0.06%     99.96% |          40      0.02%     99.99% |          13      0.01%    100.00% |           4      0.00%    100.00% |           0      0.00%    100.00% |           0      0.00%    100.00% |           1      0.00%    100.00% |           0      0.00%    100.00% (Unspecified)
system.caches.RequestType.RMW_Read.latency_hist_seqr::total       160730                       (Unspecified)
system.caches.RequestType.RMW_Read.hit_latency_hist_seqr::bucket_size          256                       (Unspecified)
system.caches.RequestType.RMW_Read.hit_latency_hist_seqr::max_bucket         2559                       (Unspecified)
system.caches.RequestType.RMW_Read.hit_latency_hist_seqr::samples       157677                       (Unspecified)
system.caches.RequestType.RMW_Read.hit_latency_hist_seqr::mean     1.478269                       (Unspecified)
system.caches.RequestType.RMW_Read.hit_latency_hist_seqr::gmean     1.114999                       (Unspecified)
system.caches.RequestType.RMW_Read.hit_latency_hist_seqr::stdev    15.036126                       (Unspecified)
system.caches.RequestType.RMW_Read.hit_latency_hist_seqr |      157607     99.96%     99.96% |          30      0.02%     99.97% |          21      0.01%     99.99% |          15      0.01%    100.00% |           2      0.00%    100.00% |           1      0.00%    100.00% |           0      0.00%    100.00% |           0      0.00%    100.00% |           1      0.00%    100.00% |           0      0.00%    100.00% (Unspecified)
system.caches.RequestType.RMW_Read.hit_latency_hist_seqr::total       157677                       (Unspecified)
system.caches.RequestType.RMW_Read.miss_latency_hist_seqr::bucket_size          256                       (Unspecified)
system.caches.RequestType.RMW_Read.miss_latency_hist_seqr::max_bucket         2559                       (Unspecified)
system.caches.RequestType.RMW_Read.miss_latency_hist_seqr::samples         3053                       (Unspecified)
system.caches.RequestType.RMW_Read.miss_latency_hist_seqr::mean    63.271864                       (Unspecified)
system.caches.RequestType.RMW_Read.miss_latency_hist_seqr::gmean    22.036398                       (Unspecified)
system.caches.RequestType.RMW_Read.miss_latency_hist_seqr::stdev   164.104814                       (Unspecified)
system.caches.RequestType.RMW_Read.miss_latency_hist_seqr |        2800     91.71%     91.71% |         138      4.52%     96.23% |          76      2.49%     98.72% |          25      0.82%     99.54% |          11      0.36%     99.90% |           3      0.10%    100.00% |           0      0.00%    100.00% |           0      0.00%    100.00% |           0      0.00%    100.00% |           0      0.00%    100.00% (Unspecified)
system.caches.RequestType.RMW_Read.miss_latency_hist_seqr::total         3053                       (Unspecified)
system.caches.RequestType.Locked_RMW_Read.latency_hist_seqr::bucket_size          128                       (Unspecified)
system.caches.RequestType.Locked_RMW_Read.latency_hist_seqr::max_bucket         1279                       (Unspecified)
system.caches.RequestType.Locked_RMW_Read.latency_hist_seqr::samples         2024                       (Unspecified)
system.caches.RequestType.Locked_RMW_Read.latency_hist_seqr::mean    15.604249                       (Unspecified)
system.caches.RequestType.Locked_RMW_Read.latency_hist_seqr::gmean     2.339452                       (Unspecified)
system.caches.RequestType.Locked_RMW_Read.latency_hist_seqr::stdev    78.640946                       (Unspecified)
system.caches.RequestType.Locked_RMW_Read.latency_hist_seqr |        1982     97.92%     97.92% |           0      0.00%     97.92% |          15      0.74%     98.67% |          10      0.49%     99.16% |           6      0.30%     99.46% |           4      0.20%     99.65% |           5      0.25%     99.90% |           2      0.10%    100.00% |           0      0.00%    100.00% |           0      0.00%    100.00% (Unspecified)
system.caches.RequestType.Locked_RMW_Read.latency_hist_seqr::total         2024                       (Unspecified)
system.caches.RequestType.Locked_RMW_Read.hit_latency_hist_seqr::bucket_size            1                       (Unspecified)
system.caches.RequestType.Locked_RMW_Read.hit_latency_hist_seqr::max_bucket            9                       (Unspecified)
system.caches.RequestType.Locked_RMW_Read.hit_latency_hist_seqr::samples         1443                       (Unspecified)
system.caches.RequestType.Locked_RMW_Read.hit_latency_hist_seqr::mean            1                       (Unspecified)
system.caches.RequestType.Locked_RMW_Read.hit_latency_hist_seqr::gmean            1                       (Unspecified)
system.caches.RequestType.Locked_RMW_Read.hit_latency_hist_seqr |           0      0.00%      0.00% |        1443    100.00%    100.00% |           0      0.00%    100.00% |           0      0.00%    100.00% |           0      0.00%    100.00% |           0      0.00%    100.00% |           0      0.00%    100.00% |           0      0.00%    100.00% |           0      0.00%    100.00% |           0      0.00%    100.00% (Unspecified)
system.caches.RequestType.Locked_RMW_Read.hit_latency_hist_seqr::total         1443                       (Unspecified)
system.caches.RequestType.Locked_RMW_Read.miss_latency_hist_seqr::bucket_size          128                       (Unspecified)
system.caches.RequestType.Locked_RMW_Read.miss_latency_hist_seqr::max_bucket         1279                       (Unspecified)
system.caches.RequestType.Locked_RMW_Read.miss_latency_hist_seqr::samples          581                       (Unspecified)
system.caches.RequestType.Locked_RMW_Read.miss_latency_hist_seqr::mean    51.876076                       (Unspecified)
system.caches.RequestType.Locked_RMW_Read.miss_latency_hist_seqr::gmean    19.313633                       (Unspecified)
system.caches.RequestType.Locked_RMW_Read.miss_latency_hist_seqr::stdev   140.435769                       (Unspecified)
[...]
system.o3Cpu7.iew.squashCycles                   5933                       # Number of cycles IEW is squashing (Cycle)
system.o3Cpu7.iew.blockCycles                   84785                       # Number of cycles IEW is blocking (Cycle)
system.o3Cpu7.iew.unblockCycles               7632659                       # Number of cycles IEW is unblocking (Cycle)
system.o3Cpu7.iew.dispatchedInsts            46010122                       # Number of instructions dispatched to IQ (Count)
system.o3Cpu7.iew.dispSquashedInsts               455                       # Number of squashed instructions skipped by dispatch (Count)
system.o3Cpu7.iew.dispLoadInsts              15321030                       # Number of dispatched load instructions (Count)
system.o3Cpu7.iew.dispStoreInsts              3414614                       # Number of dispatched store instructions (Count)
system.o3Cpu7.iew.dispNonSpecInsts               1520                       # Number of dispatched non-speculative instructions (Count)
system.o3Cpu7.iew.iqFullEvents                    219                       # Number of times the IQ has become full, causing a stall (Count)
system.o3Cpu7.iew.lsqFullEvents               7631909                       # Number of times the LSQ has become full, causing a stall (Count)
system.o3Cpu7.iew.memOrderViolationEvents          673                       # Number of memory order violations (Count)
system.o3Cpu7.iew.predictedTakenIncorrect         4685                       # Number of branches that were predicted taken incorrectly (Count)
system.o3Cpu7.iew.predictedNotTakenIncorrect          630                       # Number of branches that were predicted not taken incorrectly (Count)
system.o3Cpu7.iew.branchMispredicts              5315                       # Number of branch mispredicts detected at execute (Count)
system.o3Cpu7.iew.instsToCommit              45846954                       # Cumulative count of insts sent to commit (Count)
system.o3Cpu7.iew.writebackCount             45844546                       # Cumulative count of insts written-back (Count)
system.o3Cpu7.iew.producerInst               38985000                       # Number of instructions producing a value (Count)
system.o3Cpu7.iew.consumerInst               68183676                       # Number of instructions consuming a value (Count)
system.o3Cpu7.iew.wbRate                     0.263754                       # Insts written-back per cycle ((Count/Cycle))
system.o3Cpu7.iew.wbFanout                   0.571764                       # Average fanout of values written-back ((Count/Count))
system.o3Cpu7.interrupts.clk_domain.clock         3200                       # Clock period in ticks (Tick)
system.o3Cpu7.lsq0.forwLoads                     7567                       # Number of loads that had data forwarded from stores (Count)
system.o3Cpu7.lsq0.squashedLoads                75957                       # Number of loads squashed (Count)
system.o3Cpu7.lsq0.ignoredResponses                20                       # Number of memory responses ignored because the instruction is squashed (Count)
system.o3Cpu7.lsq0.memOrderViolation              673                       # Number of memory ordering violations (Count)
system.o3Cpu7.lsq0.squashedStores               12590                       # Number of stores squashed (Count)
system.o3Cpu7.lsq0.rescheduledLoads                24                       # Number of loads that were rescheduled (Count)
system.o3Cpu7.lsq0.blockedByCache             1518455                       # Number of times an access to memory failed due to the cache being blocked (Count)
system.o3Cpu7.lsq0.loadToUse::samples        15245072                       # Distribution of cycle latency between the first time a load is issued and its completion (Unspecified)
system.o3Cpu7.lsq0.loadToUse::mean         165.083786                       # Distribution of cycle latency between the first time a load is issued and its completion (Unspecified)
system.o3Cpu7.lsq0.loadToUse::stdev        292.075685                       # Distribution of cycle latency between the first time a load is issued and its completion (Unspecified)
system.o3Cpu7.lsq0.loadToUse::0-9            10098530     66.24%     66.24% # Distribution of cycle latency between the first time a load is issued and its completion (Unspecified)
system.o3Cpu7.lsq0.loadToUse::10-19            115451      0.76%     67.00% # Distribution of cycle latency between the first time a load is issued and its completion (Unspecified)
system.o3Cpu7.lsq0.loadToUse::20-29             65941      0.43%     67.43% # Distribution of cycle latency between the first time a load is issued and its completion (Unspecified)
system.o3Cpu7.lsq0.loadToUse::30-39             48577      0.32%     67.75% # Distribution of cycle latency between the first time a load is issued and its completion (Unspecified)
system.o3Cpu7.lsq0.loadToUse::40-49             28990      0.19%     67.94% # Distribution of cycle latency between the first time a load is issued and its completion (Unspecified)
system.o3Cpu7.lsq0.loadToUse::50-59             33286      0.22%     68.16% # Distribution of cycle latency between the first time a load is issued and its completion (Unspecified)
system.o3Cpu7.lsq0.loadToUse::60-69             26388      0.17%     68.33% # Distribution of cycle latency between the first time a load is issued and its completion (Unspecified)
system.o3Cpu7.lsq0.loadToUse::70-79             26094      0.17%     68.50% # Distribution of cycle latency between the first time a load is issued and its completion (Unspecified)
system.o3Cpu7.lsq0.loadToUse::80-89             24819      0.16%     68.67% # Distribution of cycle latency between the first time a load is issued and its completion (Unspecified)
system.o3Cpu7.lsq0.loadToUse::90-99             20893      0.14%     68.80% # Distribution of cycle latency between the first time a load is issued and its completion (Unspecified)
system.o3Cpu7.lsq0.loadToUse::100-109           21797      0.14%     68.95% # Distribution of cycle latency between the first time a load is issued and its completion (Unspecified)
system.o3Cpu7.lsq0.loadToUse::110-119           21066      0.14%     69.08% # Distribution of cycle latency between the first time a load is issued and its completion (Unspecified)
system.o3Cpu7.lsq0.loadToUse::120-129           19424      0.13%     69.21% # Distribution of cycle latency between the first time a load is issued and its completion (Unspecified)
system.o3Cpu7.lsq0.loadToUse::130-139           20215      0.13%     69.34% # Distribution of cycle latency between the first time a load is issued and its completion (Unspecified)
system.o3Cpu7.lsq0.loadToUse::140-149           18999      0.12%     69.47% # Distribution of cycle latency between the first time a load is issued and its completion (Unspecified)
system.o3Cpu7.lsq0.loadToUse::150-159           18579      0.12%     69.59% # Distribution of cycle latency between the first time a load is issued and its completion (Unspecified)
system.o3Cpu7.lsq0.loadToUse::160-169           18045      0.12%     69.71% # Distribution of cycle latency between the first time a load is issued and its completion (Unspecified)
system.o3Cpu7.lsq0.loadToUse::170-179           17529      0.11%     69.82% # Distribution of cycle latency between the first time a load is issued and its completion (Unspecified)
system.o3Cpu7.lsq0.loadToUse::180-189           19829      0.13%     69.95% # Distribution of cycle latency between the first time a load is issued and its completion (Unspecified)
system.o3Cpu7.lsq0.loadToUse::190-199           19327      0.13%     70.08% # Distribution of cycle latency between the first time a load is issued and its completion (Unspecified)
system.o3Cpu7.lsq0.loadToUse::200-209           19317      0.13%     70.21% # Distribution of cycle latency between the first time a load is issued and its completion (Unspecified)
system.o3Cpu7.lsq0.loadToUse::210-219           16733      0.11%     70.32% # Distribution of cycle latency between the first time a load is issued and its completion (Unspecified)
system.o3Cpu7.lsq0.loadToUse::220-229           13955      0.09%     70.41% # Distribution of cycle latency between the first time a load is issued and its completion (Unspecified)
system.o3Cpu7.lsq0.loadToUse::230-239           21776      0.14%     70.55% # Distribution of cycle latency between the first time a load is issued and its completion (Unspecified)
system.o3Cpu7.lsq0.loadToUse::240-249           15973      0.10%     70.66% # Distribution of cycle latency between the first time a load is issued and its completion (Unspecified)
system.o3Cpu7.lsq0.loadToUse::250-259           19263      0.13%     70.78% # Distribution of cycle latency between the first time a load is issued and its completion (Unspecified)
system.o3Cpu7.lsq0.loadToUse::260-269           19406      0.13%     70.91% # Distribution of cycle latency between the first time a load is issued and its completion (Unspecified)
system.o3Cpu7.lsq0.loadToUse::270-279           16974      0.11%     71.02% # Distribution of cycle latency between the first time a load is issued and its completion (Unspecified)
system.o3Cpu7.lsq0.loadToUse::280-289           20587      0.14%     71.16% # Distribution of cycle latency between the first time a load is issued and its completion (Unspecified)
system.o3Cpu7.lsq0.loadToUse::290-299           18644      0.12%     71.28% # Distribution of cycle latency between the first time a load is issued and its completion (Unspecified)
system.o3Cpu7.lsq0.loadToUse::overflows       4378665     28.72%    100.00% # Distribution of cycle latency between the first time a load is issued and its completion (Unspecified)
system.o3Cpu7.lsq0.loadToUse::min_value             2                       # Distribution of cycle latency between the first time a load is issued and its completion (Unspecified)
system.o3Cpu7.lsq0.loadToUse::max_value          3729                       # Distribution of cycle latency between the first time a load is issued and its completion (Unspecified)
system.o3Cpu7.lsq0.loadToUse::total          15245072                       # Distribution of cycle latency between the first time a load is issued and its completion (Unspecified)
system.o3Cpu7.mmu.dtb.rdAccesses             15290617                       # TLB accesses on read requests (Count)
system.o3Cpu7.mmu.dtb.wrAccesses              3404734                       # TLB accesses on write requests (Count)
system.o3Cpu7.mmu.dtb.rdMisses                   3586                       # TLB misses on read requests (Count)
system.o3Cpu7.mmu.dtb.wrMisses                   1145                       # TLB misses on write requests (Count)
system.o3Cpu7.mmu.dtb.walker.power_state.pwrStateResidencyTicks::UNDEFINED  35777330400                       # Cumulative time (in ticks) in various power states (Tick)
system.o3Cpu7.mmu.itb.rdAccesses                    0                       # TLB accesses on read requests (Count)
system.o3Cpu7.mmu.itb.wrAccesses              2308177                       # TLB accesses on write requests (Count)
system.o3Cpu7.mmu.itb.rdMisses                      0                       # TLB misses on read requests (Count)
system.o3Cpu7.mmu.itb.wrMisses                     60                       # TLB misses on write requests (Count)
system.o3Cpu7.mmu.itb.walker.power_state.pwrStateResidencyTicks::UNDEFINED  35777330400                       # Cumulative time (in ticks) in various power states (Tick)
system.o3Cpu7.power_state.pwrStateResidencyTicks::OFF  35777330400                       # Cumulative time (in ticks) in various power states (Tick)
system.o3Cpu7.rename.squashCycles                5933                       # Number of cycles rename is squashing (Cycle)
system.o3Cpu7.rename.idleCycles               1390025                       # Number of cycles rename is idle (Cycle)
system.o3Cpu7.rename.blockCycles              7903354                       # Number of cycles rename is blocking (Cycle)
system.o3Cpu7.rename.serializeStallCycles       129632                       # count of cycles rename stalled for serializing inst (Cycle)
system.o3Cpu7.rename.runCycles                2533628                       # Number of cycles rename is running (Cycle)
system.o3Cpu7.rename.unblockCycles          146759142                       # Number of cycles rename is unblocking (Cycle)
system.o3Cpu7.rename.renamedInsts            46062821                       # Number of instructions processed by rename (Count)
system.o3Cpu7.rename.ROBFullEvents               1008                       # Number of times rename has blocked due to ROB full (Count)
system.o3Cpu7.rename.IQFullEvents               31993                       # Number of times rename has blocked due to IQ full (Count)
system.o3Cpu7.rename.LQFullEvents            77264869                       # Number of times rename has blocked due to LQ full (Count)
system.o3Cpu7.rename.SQFullEvents            69019816                       # Number of times rename has blocked due to SQ full (Count)
system.o3Cpu7.rename.renamedOperands         58891837                       # Number of destination operands rename has renamed (Count)
system.o3Cpu7.rename.lookups                147626605                       # Number of register rename lookups that rename has made (Count)
system.o3Cpu7.rename.intLookups              46322730                       # Number of integer rename lookups (Count)
system.o3Cpu7.rename.fpLookups               56106427                       # Number of floating rename lookups (Count)
system.o3Cpu7.rename.committedMaps           58526825                       # Number of HB maps that are committed (Count)
system.o3Cpu7.rename.undoneMaps                364997                       # Number of HB maps that are undone due to squashing (Count)
system.o3Cpu7.rename.serializing                 1655                       # count of serializing insts renamed (Count)
system.o3Cpu7.rename.tempSerializing             1738                       # count of temporary serializing insts renamed (Count)
system.o3Cpu7.rename.skidInsts               14670349                       # count of insts added to the skid buffer (Count)
system.o3Cpu7.rob.reads                     202525919                       # The number of ROB reads (Count)
system.o3Cpu7.rob.writes                     92036763                       # The number of ROB writes (Count)
system.o3Cpu7.thread_0.numInsts              22676398                       # Number of Instructions committed (Count)
system.o3Cpu7.thread_0.numOps                45788117                       # Number of Ops committed (Count)
system.o3Cpu7.thread_0.numMemRefs                   0                       # Number of Memory References (Count)
system.pc.bad_addr.power_state.pwrStateResidencyTicks::UNDEFINED  35777330400                       # Cumulative time (in ticks) in various power states (Tick)
system.pc.com_1.power_state.pwrStateResidencyTicks::UNDEFINED  35777330400                       # Cumulative time (in ticks) in various power states (Tick)
system.pc.default_bus.power_state.pwrStateResidencyTicks::UNDEFINED  35777330400                       # Cumulative time (in ticks) in various power states (Tick)
system.pc.empty_isa.power_state.pwrStateResidencyTicks::UNDEFINED  35777330400                       # Cumulative time (in ticks) in various power states (Tick)
system.pc.fake_com_2.power_state.pwrStateResidencyTicks::UNDEFINED  35777330400                       # Cumulative time (in ticks) in various power states (Tick)
system.pc.fake_com_3.power_state.pwrStateResidencyTicks::UNDEFINED  35777330400                       # Cumulative time (in ticks) in various power states (Tick)
system.pc.fake_com_4.power_state.pwrStateResidencyTicks::UNDEFINED  35777330400                       # Cumulative time (in ticks) in various power states (Tick)
system.pc.fake_floppy.power_state.pwrStateResidencyTicks::UNDEFINED  35777330400                       # Cumulative time (in ticks) in various power states (Tick)
system.pc.pci_host.power_state.pwrStateResidencyTicks::UNDEFINED  35777330400                       # Cumulative time (in ticks) in various power states (Tick)
system.pc.south_bridge.cmos.power_state.pwrStateResidencyTicks::UNDEFINED  35777330400                       # Cumulative time (in ticks) in various power states (Tick)
system.pc.south_bridge.dma1.power_state.pwrStateResidencyTicks::UNDEFINED  35777330400                       # Cumulative time (in ticks) in various power states (Tick)
system.pc.south_bridge.ide.disks0.IdeDisk.dmaReadFullPages            0                       # Number of full page size DMA reads (not PRD). (Count)
system.pc.south_bridge.ide.disks0.IdeDisk.dmaReadBytes            0                       # Number of bytes transfered via DMA reads (not PRD). (Byte)
system.pc.south_bridge.ide.disks0.IdeDisk.dmaReadTxs            0                       # Number of DMA read transactions (not PRD). (Count)
system.pc.south_bridge.ide.disks0.IdeDisk.dmaWriteFullPages            0                       # Number of full page size DMA writes. (Count)
system.pc.south_bridge.ide.disks0.IdeDisk.dmaWriteBytes            0                       # Number of bytes transfered via DMA writes. (Byte)
system.pc.south_bridge.ide.disks0.IdeDisk.dmaWriteTxs            0                       # Number of DMA write transactions. (Count)
system.pc.south_bridge.ide.disks1.IdeDisk.dmaReadFullPages            0                       # Number of full page size DMA reads (not PRD). (Count)
system.pc.south_bridge.ide.disks1.IdeDisk.dmaReadBytes            0                       # Number of bytes transfered via DMA reads (not PRD). (Byte)
system.pc.south_bridge.ide.disks1.IdeDisk.dmaReadTxs            0                       # Number of DMA read transactions (not PRD). (Count)
system.pc.south_bridge.ide.disks1.IdeDisk.dmaWriteFullPages            0                       # Number of full page size DMA writes. (Count)
system.pc.south_bridge.ide.disks1.IdeDisk.dmaWriteBytes            0                       # Number of bytes transfered via DMA writes. (Byte)
system.pc.south_bridge.ide.disks1.IdeDisk.dmaWriteTxs            0                       # Number of DMA write transactions. (Count)
system.pc.south_bridge.ide.power_state.pwrStateResidencyTicks::UNDEFINED  35777330400                       # Cumulative time (in ticks) in various power states (Tick)
system.pc.south_bridge.io_apic.power_state.pwrStateResidencyTicks::UNDEFINED  35777330400                       # Cumulative time (in ticks) in various power states (Tick)
system.pc.south_bridge.keyboard.power_state.pwrStateResidencyTicks::UNDEFINED  35777330400                       # Cumulative time (in ticks) in various power states (Tick)
system.pc.south_bridge.pic1.power_state.pwrStateResidencyTicks::UNDEFINED  35777330400                       # Cumulative time (in ticks) in various power states (Tick)
system.pc.south_bridge.pic2.power_state.pwrStateResidencyTicks::UNDEFINED  35777330400                       # Cumulative time (in ticks) in various power states (Tick)
system.pc.south_bridge.pit.power_state.pwrStateResidencyTicks::UNDEFINED  35777330400                       # Cumulative time (in ticks) in various power states (Tick)
system.pc.south_bridge.speaker.power_state.pwrStateResidencyTicks::UNDEFINED  35777330400                       # Cumulative time (in ticks) in various power states (Tick)
system.workload.inst.arm                            0                       # number of arm instructions executed (Count)
system.workload.inst.quiesce                        0                       # number of quiesce instructions executed (Count)

---------- End Simulation Statistics   ----------
