
---------- Begin Simulation Statistics ----------
simSeconds                                   0.041102                       # Number of seconds simulated (Second)
simTicks                                  41102076600                       # Number of ticks simulated (Tick)
finalTick                                250734320052200                       # Number of ticks from beginning of simulation (restored from checkpoints and never reset) (Tick)
simFreq                                  1000000000000                       # The number of ticks per simulated second ((Tick/Second))
hostSeconds                                   4368.53                       # Real time elapsed on the host (Second)
hostTickRate                                  9408672                       # The number of ticks simulated per host second (ticks/s) ((Tick/Second))
hostMemory                                   19907928                       # Number of bytes of host memory used (Byte)
simInsts                                     56433657                       # Number of instructions simulated (Count)
simOps                                       91655812                       # Number of ops (including micro ops) simulated (Count)
hostInstRate                                    12918                       # Simulator instruction rate (inst/s) ((Count/Second))
hostOpRate                                      20981                       # Simulator op (including micro ops) rate (op/s) ((Count/Second))
system.caches.delayHistogram::bucket_size            8                       # delay histogram for all message (Unspecified)
system.caches.delayHistogram::max_bucket           79                       # delay histogram for all message (Unspecified)
system.caches.delayHistogram::samples        34470098                       # delay histogram for all message (Unspecified)
system.caches.delayHistogram::mean           0.722632                       # delay histogram for all message (Unspecified)
system.caches.delayHistogram::stdev          2.362360                       # delay histogram for all message (Unspecified)
system.caches.delayHistogram             |    31871021     92.46%     92.46% |     2539053      7.37%     99.83% |       58218      0.17%     99.99% |        1690      0.00%    100.00% |          90      0.00%    100.00% |          21      0.00%    100.00% |           5      0.00%    100.00% |           0      0.00%    100.00% |           0      0.00%    100.00% |           0      0.00%    100.00% # delay histogram for all message (Unspecified)
system.caches.delayHistogram::total          34470098                       # delay histogram for all message (Unspecified)
system.caches.m_outstandReqHistSeqr::bucket_size            2                       (Unspecified)
system.caches.m_outstandReqHistSeqr::max_bucket           19                       (Unspecified)
system.caches.m_outstandReqHistSeqr::samples     32354218                       (Unspecified)
system.caches.m_outstandReqHistSeqr::mean     4.094321                       (Unspecified)
system.caches.m_outstandReqHistSeqr::gmean     2.707096                       (Unspecified)
system.caches.m_outstandReqHistSeqr::stdev     3.695944                       (Unspecified)
system.caches.m_outstandReqHistSeqr      |    12305381     38.03%     38.03% |     6118637     18.91%     56.94% |     4328139     13.38%     70.32% |     3505433     10.83%     81.16% |     2196534      6.79%     87.95% |     2483084      7.67%     95.62% |      584423      1.81%     97.43% |      498621      1.54%     98.97% |      333966      1.03%    100.00% |           0      0.00%    100.00% (Unspecified)
system.caches.m_outstandReqHistSeqr::total     32354218                       (Unspecified)
system.caches.m_latencyHistSeqr::bucket_size          512                       (Unspecified)
system.caches.m_latencyHistSeqr::max_bucket         5119                       (Unspecified)
system.caches.m_latencyHistSeqr::samples     32358191                       (Unspecified)
system.caches.m_latencyHistSeqr::mean       95.517132                       (Unspecified)
system.caches.m_latencyHistSeqr::gmean       2.651633                       (Unspecified)
system.caches.m_latencyHistSeqr::stdev     254.039377                       (Unspecified)
system.caches.m_latencyHistSeqr          |    29691705     91.76%     91.76% |     2440458      7.54%     99.30% |      142879      0.44%     99.74% |        6472      0.02%     99.76% |       42932      0.13%     99.90% |       32048      0.10%     99.99% |        1651      0.01%    100.00% |          45      0.00%    100.00% |           1      0.00%    100.00% |           0      0.00%    100.00% (Unspecified)
system.caches.m_latencyHistSeqr::total       32358191                       (Unspecified)
system.caches.m_hitLatencyHistSeqr::bucket_size          512                       (Unspecified)
system.caches.m_hitLatencyHistSeqr::max_bucket         5119                       (Unspecified)
system.caches.m_hitLatencyHistSeqr::samples     27380332                       (Unspecified)
system.caches.m_hitLatencyHistSeqr::mean     1.009752                       (Unspecified)
system.caches.m_hitLatencyHistSeqr::gmean     1.002438                       (Unspecified)
system.caches.m_hitLatencyHistSeqr::stdev     2.117307                       (Unspecified)
system.caches.m_hitLatencyHistSeqr       |    27380219    100.00%    100.00% |         104      0.00%    100.00% |           1      0.00%    100.00% |           3      0.00%    100.00% |           3      0.00%    100.00% |           2      0.00%    100.00% |           0      0.00%    100.00% |           0      0.00%    100.00% |           0      0.00%    100.00% |           0      0.00%    100.00% (Unspecified)
system.caches.m_hitLatencyHistSeqr::total     27380332                       (Unspecified)
system.caches.m_missLatencyHistSeqr::bucket_size          512                       (Unspecified)
system.caches.m_missLatencyHistSeqr::max_bucket         5119                       (Unspecified)
system.caches.m_missLatencyHistSeqr::samples      4977859                       (Unspecified)
system.caches.m_missLatencyHistSeqr::mean   615.347735                       (Unspecified)
system.caches.m_missLatencyHistSeqr::gmean   558.725547                       (Unspecified)
system.caches.m_missLatencyHistSeqr::stdev   316.441181                       (Unspecified)
system.caches.m_missLatencyHistSeqr      |     2311486     46.44%     46.44% |     2440354     49.02%     95.46% |      142878      2.87%     98.33% |        6469      0.13%     98.46% |       42929      0.86%     99.32% |       32046      0.64%     99.97% |        1651      0.03%    100.00% |          45      0.00%    100.00% |           1      0.00%    100.00% |           0      0.00%    100.00% (Unspecified)
system.caches.m_missLatencyHistSeqr::total      4977859                       (Unspecified)
system.caches.delayVCHist.vnet_0::bucket_size            8                       # delay histogram for vnet_0 (Unspecified)
system.caches.delayVCHist.vnet_0::max_bucket           79                       # delay histogram for vnet_0 (Unspecified)
system.caches.delayVCHist.vnet_0::samples     14775510                       # delay histogram for vnet_0 (Unspecified)
system.caches.delayVCHist.vnet_0::mean       1.644486                       # delay histogram for vnet_0 (Unspecified)
system.caches.delayVCHist.vnet_0::stdev      3.362031                       # delay histogram for vnet_0 (Unspecified)
system.caches.delayVCHist.vnet_0         |    12186321     82.48%     82.48% |     2529977     17.12%     99.60% |       57652      0.39%     99.99% |        1522      0.01%    100.00% |          30      0.00%    100.00% |           4      0.00%    100.00% |           4      0.00%    100.00% |           0      0.00%    100.00% |           0      0.00%    100.00% |           0      0.00%    100.00% # delay histogram for vnet_0 (Unspecified)
system.caches.delayVCHist.vnet_0::total      14775510                       # delay histogram for vnet_0 (Unspecified)
system.caches.delayVCHist.vnet_1::bucket_size            8                       # delay histogram for vnet_1 (Unspecified)
system.caches.delayVCHist.vnet_1::max_bucket           79                       # delay histogram for vnet_1 (Unspecified)
system.caches.delayVCHist.vnet_1::samples     19638104                       # delay histogram for vnet_1 (Unspecified)
system.caches.delayVCHist.vnet_1::mean       0.031116                       # delay histogram for vnet_1 (Unspecified)
system.caches.delayVCHist.vnet_1::stdev      0.414910                       # delay histogram for vnet_1 (Unspecified)
system.caches.delayVCHist.vnet_1         |    19628216     99.95%     99.95% |        9076      0.05%    100.00% |         566      0.00%    100.00% |         168      0.00%    100.00% |          60      0.00%    100.00% |          17      0.00%    100.00% |           1      0.00%    100.00% |           0      0.00%    100.00% |           0      0.00%    100.00% |           0      0.00%    100.00% # delay histogram for vnet_1 (Unspecified)
system.caches.delayVCHist.vnet_1::total      19638104                       # delay histogram for vnet_1 (Unspecified)
system.caches.delayVCHist.vnet_2::bucket_size            1                       # delay histogram for vnet_2 (Unspecified)
system.caches.delayVCHist.vnet_2::max_bucket            9                       # delay histogram for vnet_2 (Unspecified)
system.caches.delayVCHist.vnet_2::samples        56484                       # delay histogram for vnet_2 (Unspecified)
system.caches.delayVCHist.vnet_2::mean       0.000283                       # delay histogram for vnet_2 (Unspecified)
system.caches.delayVCHist.vnet_2::stdev      0.023800                       # delay histogram for vnet_2 (Unspecified)
system.caches.delayVCHist.vnet_2         |       56476     99.99%     99.99% |           0      0.00%     99.99% |           8      0.01%    100.00% |           0      0.00%    100.00% |           0      0.00%    100.00% |           0      0.00%    100.00% |           0      0.00%    100.00% |           0      0.00%    100.00% |           0      0.00%    100.00% |           0      0.00%    100.00% # delay histogram for vnet_2 (Unspecified)
system.caches.delayVCHist.vnet_2::total         56484                       # delay histogram for vnet_2 (Unspecified)
system.caches.L1Cache_Controller.Load    |      648288     12.28%     12.28% |      664104     12.58%     24.86% |      683828     12.95%     37.81% |      662682     12.55%     50.36% |      659825     12.50%     62.85% |      652770     12.36%     75.22% |      668624     12.66%     87.88% |      639923     12.12%    100.00% (Unspecified)
system.caches.L1Cache_Controller.Load::total      5280044                       (Unspecified)
system.caches.L1Cache_Controller.Ifetch  |      836815     12.46%     12.46% |      904988     13.48%     25.94% |      849160     12.64%     38.58% |      816208     12.15%     50.73% |      801852     11.94%     62.67% |      837314     12.47%     75.14% |      864783     12.88%     88.02% |      804561     11.98%    100.00% (Unspecified)
system.caches.L1Cache_Controller.Ifetch::total      6715681                       (Unspecified)
system.caches.L1Cache_Controller.Store   |     2528532     12.42%     12.42% |     2572048     12.63%     25.05% |     2561125     12.58%     37.63% |     2533425     12.44%     50.07% |     2546337     12.51%     62.57% |     2521205     12.38%     74.95% |     2542420     12.49%     87.44% |     2557394     12.56%    100.00% (Unspecified)
system.caches.L1Cache_Controller.Store::total     20362486                       (Unspecified)
system.caches.L1Cache_Controller.Inv     |        7217     12.86%     12.86% |        7802     13.91%     26.77% |        6178     11.01%     37.78% |        8345     14.87%     52.65% |        7456     13.29%     65.94% |        7651     13.64%     79.58% |        4513      8.04%     87.62% |        6943     12.38%    100.00% (Unspecified)
system.caches.L1Cache_Controller.Inv::total        56105                       (Unspecified)
system.caches.L1Cache_Controller.L1_Replacement |      613088     12.53%     12.53% |      613368     12.53%     25.06% |      614501     12.56%     37.62% |      609264     12.45%     50.06% |      613992     12.55%     62.61% |      604583     12.35%     74.96% |      608350     12.43%     87.39% |      616964     12.61%    100.00% (Unspecified)
system.caches.L1Cache_Controller.L1_Replacement::total      4894110                       (Unspecified)
system.caches.L1Cache_Controller.Fwd_GETS |         321     84.70%     84.70% |          31      8.18%     92.88% |           6      1.58%     94.46% |           2      0.53%     94.99% |           8      2.11%     97.10% |           3      0.79%     97.89% |           2      0.53%     98.42% |           6      1.58%    100.00% (Unspecified)
system.caches.L1Cache_Controller.Fwd_GETS::total          379                       (Unspecified)
system.caches.L1Cache_Controller.Data    |          86    100.00%    100.00% |           0      0.00%    100.00% |           0      0.00%    100.00% |           0      0.00%    100.00% |           0      0.00%    100.00% |           0      0.00%    100.00% |           0      0.00%    100.00% |           0      0.00%    100.00% (Unspecified)
system.caches.L1Cache_Controller.Data::total           86                       (Unspecified)
system.caches.L1Cache_Controller.Data_Exclusive |      296514     12.38%     12.38% |      298557     12.47%     24.85% |      300889     12.56%     37.41% |      299345     12.50%     49.91% |      302245     12.62%     62.54% |      296245     12.37%     74.91% |      297273     12.41%     87.32% |      303658     12.68%    100.00% (Unspecified)
system.caches.L1Cache_Controller.Data_Exclusive::total      2394726                       (Unspecified)
system.caches.L1Cache_Controller.DataS_fromL1 |          11      2.90%      2.90% |         217     57.26%     60.16% |          97     25.59%     85.75% |          28      7.39%     93.14% |           8      2.11%     95.25% |          11      2.90%     98.15% |           5      1.32%     99.47% |           2      0.53%    100.00% (Unspecified)
system.caches.L1Cache_Controller.DataS_fromL1::total          379                       (Unspecified)
system.caches.L1Cache_Controller.Data_all_Acks |      320379     12.41%     12.41% |      326028     12.62%     25.03% |      324896     12.58%     37.61% |      321296     12.44%     50.05% |      323065     12.51%     62.56% |      319768     12.38%     74.94% |      322490     12.49%     87.43% |      324561     12.57%    100.00% (Unspecified)
system.caches.L1Cache_Controller.Data_all_Acks::total      2582483                       (Unspecified)
system.caches.L1Cache_Controller.Ack     |        1259    100.00%    100.00% |           0      0.00%    100.00% |           0      0.00%    100.00% |           0      0.00%    100.00% |           0      0.00%    100.00% |           0      0.00%    100.00% |           0      0.00%    100.00% |           0      0.00%    100.00% (Unspecified)
system.caches.L1Cache_Controller.Ack::total         1259                       (Unspecified)
system.caches.L1Cache_Controller.Ack_all |         271    100.00%    100.00% |           0      0.00%    100.00% |           0      0.00%    100.00% |           0      0.00%    100.00% |           0      0.00%    100.00% |           0      0.00%    100.00% |           0      0.00%    100.00% |           0      0.00%    100.00% (Unspecified)
system.caches.L1Cache_Controller.Ack_all::total          271                       (Unspecified)
system.caches.L1Cache_Controller.WB_Ack  |      608226     12.53%     12.53% |      607624     12.52%     25.05% |      610175     12.57%     37.62% |      602975     12.42%     50.04% |      608336     12.53%     62.58% |      598972     12.34%     74.92% |      605838     12.48%     87.40% |      611727     12.60%    100.00% (Unspecified)
system.caches.L1Cache_Controller.WB_Ack::total      4853873                       (Unspecified)
system.caches.L1Cache_Controller.NP.Load |      297236     12.37%     12.37% |      299564     12.47%     24.84% |      301945     12.57%     37.41% |      300317     12.50%     49.91% |      303275     12.62%     62.53% |      297105     12.37%     74.90% |      298194     12.41%     87.31% |      304794     12.69%    100.00% (Unspecified)
system.caches.L1Cache_Controller.NP.Load::total      2402430                       (Unspecified)
system.caches.L1Cache_Controller.NP.Ifetch |         627     22.89%     22.89% |         212      7.74%     30.63% |         327     11.94%     42.57% |         250      9.13%     51.70% |         326     11.90%     63.60% |         335     12.23%     75.83% |         333     12.16%     87.99% |         329     12.01%    100.00% (Unspecified)
system.caches.L1Cache_Controller.NP.Ifetch::total         2739                       (Unspecified)
system.caches.L1Cache_Controller.NP.Store |      315440     12.38%     12.38% |      321886     12.64%     25.02% |      320508     12.58%     37.60% |      317022     12.45%     50.05% |      318670     12.51%     62.56% |      315421     12.38%     74.94% |      318100     12.49%     87.43% |      320125     12.57%    100.00% (Unspecified)
system.caches.L1Cache_Controller.NP.Store::total      2547172                       (Unspecified)
system.caches.L1Cache_Controller.NP.Inv  |          55      5.08%      5.08% |         124     11.46%     16.54% |         143     13.22%     29.76% |         154     14.23%     43.99% |         149     13.77%     57.76% |         152     14.05%     71.81% |         152     14.05%     85.86% |         153     14.14%    100.00% (Unspecified)
system.caches.L1Cache_Controller.NP.Inv::total         1082                       (Unspecified)
system.caches.L1Cache_Controller.I.Load  |         425     12.47%     12.47% |         455     13.35%     25.81% |         438     12.85%     38.66% |         436     12.79%     51.45% |         412     12.09%     63.54% |         467     13.70%     77.24% |         426     12.50%     89.73% |         350     10.27%    100.00% (Unspecified)
system.caches.L1Cache_Controller.I.Load::total         3409                       (Unspecified)
system.caches.L1Cache_Controller.I.Ifetch |        3030     14.69%     14.69% |        2519     12.21%     26.89% |        2513     12.18%     39.07% |        2510     12.16%     51.24% |        2505     12.14%     63.38% |        2516     12.19%     75.57% |        2526     12.24%     87.82% |        2514     12.18%    100.00% (Unspecified)
system.caches.L1Cache_Controller.I.Ifetch::total        20633                       (Unspecified)
system.caches.L1Cache_Controller.I.Store |         235     17.97%     17.97% |         169     12.92%     30.89% |         153     11.70%     42.58% |         136     10.40%     52.98% |         131     10.02%     63.00% |         182     13.91%     76.91% |         191     14.60%     91.51% |         111      8.49%    100.00% (Unspecified)
system.caches.L1Cache_Controller.I.Store::total         1308                       (Unspecified)
system.caches.L1Cache_Controller.I.L1_Replacement |        3313     11.63%     11.63% |        4383     15.39%     27.02% |        2796      9.82%     36.84% |        4935     17.33%     54.17% |        4130     14.50%     68.67% |        4195     14.73%     83.40% |        1074      3.77%     87.17% |        3655     12.83%    100.00% (Unspecified)
system.caches.L1Cache_Controller.I.L1_Replacement::total        28481                       (Unspecified)
system.caches.L1Cache_Controller.S.Load  |       14805     10.37%     10.37% |       22686     15.90%     26.27% |       22950     16.08%     42.35% |       18977     13.30%     55.65% |       16461     11.53%     67.18% |       16197     11.35%     78.53% |       15152     10.62%     89.15% |       15492     10.85%    100.00% (Unspecified)
system.caches.L1Cache_Controller.S.Load::total       142720                       (Unspecified)
system.caches.L1Cache_Controller.S.Ifetch |      833158     12.45%     12.45% |      902257     13.48%     25.93% |      846320     12.65%     38.58% |      813448     12.15%     50.73% |      799021     11.94%     62.67% |      834463     12.47%     75.14% |      861924     12.88%     88.02% |      801718     11.98%    100.00% (Unspecified)
system.caches.L1Cache_Controller.S.Ifetch::total      6692309                       (Unspecified)
system.caches.L1Cache_Controller.S.Store |         185    100.00%    100.00% |           0      0.00%    100.00% |           0      0.00%    100.00% |           0      0.00%    100.00% |           0      0.00%    100.00% |           0      0.00%    100.00% |           0      0.00%    100.00% |           0      0.00%    100.00% (Unspecified)
system.caches.L1Cache_Controller.S.Store::total          185                       (Unspecified)
system.caches.L1Cache_Controller.S.Inv   |        3290     14.24%     14.24% |        2901     12.56%     26.80% |        2836     12.28%     39.08% |        2856     12.36%     51.44% |        2799     12.12%     63.56% |        2811     12.17%     75.72% |        2813     12.18%     87.90% |        2795     12.10%    100.00% (Unspecified)
system.caches.L1Cache_Controller.S.Inv::total        23101                       (Unspecified)
system.caches.L1Cache_Controller.S.L1_Replacement |        1548     13.18%     13.18% |        1359     11.57%     24.75% |        1529     13.02%     37.77% |        1353     11.52%     49.29% |        1524     12.98%     62.26% |        1415     12.05%     74.31% |        1436     12.23%     86.54% |        1581     13.46%    100.00% (Unspecified)
system.caches.L1Cache_Controller.S.L1_Replacement::total        11745                       (Unspecified)
system.caches.L1Cache_Controller.E.Load  |      316090     12.01%     12.01% |      330082     12.54%     24.55% |      347118     13.19%     37.73% |      331661     12.60%     50.33% |      328469     12.48%     62.81% |      327499     12.44%     75.25% |      343548     13.05%     88.30% |      307960     11.70%    100.00% (Unspecified)
system.caches.L1Cache_Controller.E.Load::total      2632427                       (Unspecified)
system.caches.L1Cache_Controller.E.Store |         350     17.09%     17.09% |         275     13.43%     30.52% |         234     11.43%     41.94% |         260     12.70%     54.64% |         236     11.52%     66.16% |         228     11.13%     77.29% |         221     10.79%     88.09% |         244     11.91%    100.00% (Unspecified)
system.caches.L1Cache_Controller.E.Store::total         2048                       (Unspecified)
system.caches.L1Cache_Controller.E.Inv   |        1283      8.70%      8.70% |        2987     20.26%     28.96% |         684      4.64%     33.60% |        2733     18.53%     52.13% |        1267      8.59%     60.72% |        3180     21.57%     82.29% |         673      4.56%     86.85% |        1939     13.15%    100.00% (Unspecified)
system.caches.L1Cache_Controller.E.Inv::total        14746                       (Unspecified)
system.caches.L1Cache_Controller.E.L1_Replacement |      286694     12.26%     12.26% |      290719     12.43%     24.69% |      295553     12.64%     37.33% |      291966     12.48%     49.81% |      296357     12.67%     62.48% |      288397     12.33%     74.82% |      291999     12.49%     87.30% |      296969     12.70%    100.00% (Unspecified)
system.caches.L1Cache_Controller.E.L1_Replacement::total      2338654                       (Unspecified)
system.caches.L1Cache_Controller.E.Fwd_GETS |          50     46.30%     46.30% |          31     28.70%     75.00% |           6      5.56%     80.56% |           2      1.85%     82.41% |           8      7.41%     89.81% |           3      2.78%     92.59% |           2      1.85%     94.44% |           6      5.56%    100.00% (Unspecified)
system.caches.L1Cache_Controller.E.Fwd_GETS::total          108                       (Unspecified)
system.caches.L1Cache_Controller.M.Load  |       19732     19.92%     19.92% |       11317     11.42%     31.34% |       11377     11.49%     42.83% |       11290     11.40%     54.23% |       11208     11.31%     65.54% |       11502     11.61%     77.15% |       11304     11.41%     88.57% |       11327     11.43%    100.00% (Unspecified)
system.caches.L1Cache_Controller.M.Load::total        99057                       (Unspecified)
system.caches.L1Cache_Controller.M.Store |     2212322     12.42%     12.42% |     2249717     12.63%     25.05% |     2240230     12.58%     37.63% |     2216007     12.44%     50.07% |     2227300     12.50%     62.57% |     2205374     12.38%     74.96% |     2223908     12.49%     87.44% |     2236913     12.56%    100.00% (Unspecified)
system.caches.L1Cache_Controller.M.Store::total     17811771                       (Unspecified)
system.caches.L1Cache_Controller.M.Inv   |        2589     15.11%     15.11% |        1783     10.41%     25.52% |        2499     14.59%     40.10% |        2594     15.14%     55.24% |        3235     18.88%     74.13% |        1506      8.79%     82.92% |         873      5.10%     88.01% |        2054     11.99%    100.00% (Unspecified)
system.caches.L1Cache_Controller.M.Inv::total        17133                       (Unspecified)
system.caches.L1Cache_Controller.M.L1_Replacement |      321532     12.78%     12.78% |      316905     12.60%     25.38% |      314622     12.51%     37.89% |      311009     12.37%     50.26% |      311979     12.40%     62.66% |      310575     12.35%     75.01% |      313839     12.48%     87.49% |      314758     12.51%    100.00% (Unspecified)
system.caches.L1Cache_Controller.M.L1_Replacement::total      2515219                       (Unspecified)
system.caches.L1Cache_Controller.M.Fwd_GETS |         271    100.00%    100.00% |           0      0.00%    100.00% |           0      0.00%    100.00% |           0      0.00%    100.00% |           0      0.00%    100.00% |           0      0.00%    100.00% |           0      0.00%    100.00% |           0      0.00%    100.00% (Unspecified)
system.caches.L1Cache_Controller.M.Fwd_GETS::total          271                       (Unspecified)
system.caches.L1Cache_Controller.IS.Inv  |           0      0.00%      0.00% |           7     16.28%     16.28% |          16     37.21%     53.49% |           8     18.60%     72.09% |           6     13.95%     86.05% |           2      4.65%     90.70% |           2      4.65%     95.35% |           2      4.65%    100.00% (Unspecified)
system.caches.L1Cache_Controller.IS.Inv::total           43                       (Unspecified)
system.caches.L1Cache_Controller.IS.L1_Replacement |           1     10.00%     10.00% |           2     20.00%     30.00% |           1     10.00%     40.00% |           1     10.00%     50.00% |           2     20.00%     70.00% |           1     10.00%     80.00% |           2     20.00%    100.00% |           0      0.00%    100.00% (Unspecified)
system.caches.L1Cache_Controller.IS.L1_Replacement::total           10                       (Unspecified)
system.caches.L1Cache_Controller.IS.Data_Exclusive |      296514     12.38%     12.38% |      298557     12.47%     24.85% |      300889     12.56%     37.41% |      299345     12.50%     49.91% |      302245     12.62%     62.54% |      296245     12.37%     74.91% |      297273     12.41%     87.32% |      303658     12.68%    100.00% (Unspecified)
system.caches.L1Cache_Controller.IS.Data_Exclusive::total      2394726                       (Unspecified)
system.caches.L1Cache_Controller.IS.DataS_fromL1 |          11      2.90%      2.90% |         217     57.26%     60.16% |          97     25.59%     85.75% |          28      7.39%     93.14% |           8      2.11%     95.25% |          11      2.90%     98.15% |           5      1.32%     99.47% |           2      0.53%    100.00% (Unspecified)
system.caches.L1Cache_Controller.IS.DataS_fromL1::total          379                       (Unspecified)
system.caches.L1Cache_Controller.IS.Data_all_Acks |        4791     14.07%     14.07% |        3967     11.65%     25.72% |        4220     12.39%     38.11% |        4131     12.13%     50.24% |        4259     12.51%     62.75% |        4164     12.23%     74.98% |        4198     12.33%     87.30% |        4324     12.70%    100.00% (Unspecified)
system.caches.L1Cache_Controller.IS.Data_all_Acks::total        34054                       (Unspecified)
system.caches.L1Cache_Controller.IM.L1_Replacement |           0      0.00%      0.00% |           0      0.00%      0.00% |           0      0.00%      0.00% |           0      0.00%      0.00% |           0      0.00%      0.00% |           0      0.00%      0.00% |           0      0.00%      0.00% |           1    100.00%    100.00% (Unspecified)
system.caches.L1Cache_Controller.IM.L1_Replacement::total            1                       (Unspecified)
system.caches.L1Cache_Controller.IM.Data |          86    100.00%    100.00% |           0      0.00%    100.00% |           0      0.00%    100.00% |           0      0.00%    100.00% |           0      0.00%    100.00% |           0      0.00%    100.00% |           0      0.00%    100.00% |           0      0.00%    100.00% (Unspecified)
system.caches.L1Cache_Controller.IM.Data::total           86                       (Unspecified)
system.caches.L1Cache_Controller.IM.Data_all_Acks |      315588     12.38%     12.38% |      322054     12.64%     25.02% |      320660     12.58%     37.60% |      317157     12.45%     50.05% |      318800     12.51%     62.56% |      315602     12.38%     74.94% |      318290     12.49%     87.43% |      320235     12.57%    100.00% (Unspecified)
system.caches.L1Cache_Controller.IM.Data_all_Acks::total      2548386                       (Unspecified)
system.caches.L1Cache_Controller.SM.Ack  |        1259    100.00%    100.00% |           0      0.00%    100.00% |           0      0.00%    100.00% |           0      0.00%    100.00% |           0      0.00%    100.00% |           0      0.00%    100.00% |           0      0.00%    100.00% |           0      0.00%    100.00% (Unspecified)
system.caches.L1Cache_Controller.SM.Ack::total         1259                       (Unspecified)
system.caches.L1Cache_Controller.SM.Ack_all |         271    100.00%    100.00% |           0      0.00%    100.00% |           0      0.00%    100.00% |           0      0.00%    100.00% |           0      0.00%    100.00% |           0      0.00%    100.00% |           0      0.00%    100.00% |           0      0.00%    100.00% (Unspecified)
system.caches.L1Cache_Controller.SM.Ack_all::total          271                       (Unspecified)
system.caches.L1Cache_Controller.IS_I.Data_all_Acks |           0      0.00%      0.00% |           7     16.28%     16.28% |          16     37.21%     53.49% |           8     18.60%     72.09% |           6     13.95%     86.05% |           2      4.65%     90.70% |           2      4.65%     95.35% |           2      4.65%    100.00% (Unspecified)
system.caches.L1Cache_Controller.IS_I.Data_all_Acks::total           43                       (Unspecified)
system.caches.L1Cache_Controller.M_I.Load |           0      0.00%      0.00% |           0      0.00%      0.00% |           0      0.00%      0.00% |           1    100.00%    100.00% |           0      0.00%    100.00% |           0      0.00%    100.00% |           0      0.00%    100.00% |           0      0.00%    100.00% (Unspecified)
system.caches.L1Cache_Controller.M_I.Load::total            1                       (Unspecified)
system.caches.L1Cache_Controller.M_I.Store |           0      0.00%      0.00% |           1     50.00%     50.00% |           0      0.00%     50.00% |           0      0.00%     50.00% |           0      0.00%     50.00% |           0      0.00%     50.00% |           0      0.00%     50.00% |           1     50.00%    100.00% (Unspecified)
system.caches.L1Cache_Controller.M_I.Store::total            2                       (Unspecified)
system.caches.L1Cache_Controller.M_I.WB_Ack |      608226     12.53%     12.53% |      607624     12.52%     25.05% |      610175     12.57%     37.62% |      602975     12.42%     50.04% |      608336     12.53%     62.58% |      598972     12.34%     74.92% |      605838     12.48%     87.40% |      611727     12.60%    100.00% (Unspecified)
system.caches.L1Cache_Controller.M_I.WB_Ack::total      4853873                       (Unspecified)
system.caches.Directory_Controller.Fetch |        3439      0.07%      0.07% |     4937050     99.93%    100.00% (Unspecified)
system.caches.Directory_Controller.Fetch::total      4940489                       (Unspecified)
system.caches.Directory_Controller.Data  |         189      0.01%      0.01% |     2517385     99.99%    100.00% (Unspecified)
system.caches.Directory_Controller.Data::total      2517574                       (Unspecified)
system.caches.Directory_Controller.Memory_Data |        3439      0.07%      0.07% |     4937033     99.93%    100.00% (Unspecified)
system.caches.Directory_Controller.Memory_Data::total      4940472                       (Unspecified)
system.caches.Directory_Controller.Memory_Ack |         189      0.01%      0.01% |     2517384     99.99%    100.00% (Unspecified)
system.caches.Directory_Controller.Memory_Ack::total      2517573                       (Unspecified)
system.caches.Directory_Controller.CleanReplacement |        3302      0.14%      0.14% |     2288541     99.86%    100.00% (Unspecified)
system.caches.Directory_Controller.CleanReplacement::total      2291843                       (Unspecified)
system.caches.Directory_Controller.I.Fetch |        3439      0.07%      0.07% |     4937050     99.93%    100.00% (Unspecified)
system.caches.Directory_Controller.I.Fetch::total      4940489                       (Unspecified)
system.caches.Directory_Controller.M.Data |         189      0.01%      0.01% |     2517385     99.99%    100.00% (Unspecified)
system.caches.Directory_Controller.M.Data::total      2517574                       (Unspecified)
system.caches.Directory_Controller.M.CleanReplacement |        3302      0.14%      0.14% |     2288541     99.86%    100.00% (Unspecified)
system.caches.Directory_Controller.M.CleanReplacement::total      2291843                       (Unspecified)
system.caches.Directory_Controller.IM.Memory_Data |        3439      0.07%      0.07% |     4937033     99.93%    100.00% (Unspecified)
system.caches.Directory_Controller.IM.Memory_Data::total      4940472                       (Unspecified)
system.caches.Directory_Controller.MI.Memory_Ack |         189      0.01%      0.01% |     2517384     99.99%    100.00% (Unspecified)
system.caches.Directory_Controller.MI.Memory_Ack::total      2517573                       (Unspecified)
system.caches.L2Cache_Controller.L1_GET_INSTR |        2783     11.90%     11.90% |        3703     15.84%     27.74% |        2758     11.80%     39.54% |        2132      9.12%     48.66% |        2969     12.70%     61.36% |        2987     12.78%     74.13% |        2852     12.20%     86.33% |        3195     13.67%    100.00% (Unspecified)
system.caches.L2Cache_Controller.L1_GET_INSTR::total        23379                       (Unspecified)
system.caches.L2Cache_Controller.L1_GETS |      302581     12.58%     12.58% |      301170     12.52%     25.09% |      300555     12.49%     37.58% |      300181     12.48%     50.06% |      300069     12.47%     62.53% |      300279     12.48%     75.01% |      300812     12.50%     87.51% |      300553     12.49%    100.00% (Unspecified)
system.caches.L2Cache_Controller.L1_GETS::total      2406200                       (Unspecified)
system.caches.L2Cache_Controller.L1_GETX |      318790     12.51%     12.51% |      318708     12.51%     25.01% |      318083     12.48%     37.50% |      318391     12.49%     49.99% |      318343     12.49%     62.48% |      318920     12.51%     75.00% |      318555     12.50%     87.49% |      318691     12.51%    100.00% (Unspecified)
system.caches.L2Cache_Controller.L1_GETX::total      2548481                       (Unspecified)
system.caches.L2Cache_Controller.L1_UPGRADE |          14      6.17%      6.17% |          42     18.50%     24.67% |           0      0.00%     24.67% |           0      0.00%     24.67% |           0      0.00%     24.67% |           0      0.00%     24.67% |         171     75.33%    100.00% |           0      0.00%    100.00% (Unspecified)
system.caches.L2Cache_Controller.L1_UPGRADE::total          227                       (Unspecified)
system.caches.L2Cache_Controller.L1_PUTX |      606904     12.50%     12.50% |      606958     12.50%     25.01% |      606336     12.49%     37.50% |      606601     12.50%     50.00% |      606567     12.50%     62.49% |      606867     12.50%     75.00% |      606813     12.50%     87.50% |      606827     12.50%    100.00% (Unspecified)
system.caches.L2Cache_Controller.L1_PUTX::total      4853873                       (Unspecified)
system.caches.L2Cache_Controller.L2_Replacement |      312875     12.50%     12.50% |      312782     12.50%     25.01% |      312584     12.49%     37.50% |      312738     12.50%     50.00% |      312634     12.50%     62.49% |      312909     12.51%     75.00% |      312700     12.50%     87.50% |      312844     12.50%    100.00% (Unspecified)
system.caches.L2Cache_Controller.L2_Replacement::total      2502066                       (Unspecified)
system.caches.L2Cache_Controller.L2_Replacement_clean |      288491     12.50%     12.50% |      288659     12.51%     25.01% |      288234     12.49%     37.51% |      288218     12.49%     50.00% |      288408     12.50%     62.50% |      288550     12.51%     75.00% |      288382     12.50%     87.50% |      288409     12.50%    100.00% (Unspecified)
system.caches.L2Cache_Controller.L2_Replacement_clean::total      2307351                       (Unspecified)
system.caches.L2Cache_Controller.Mem_Data |      617750     12.50%     12.50% |      617823     12.51%     25.01% |      617200     12.49%     37.50% |      617338     12.50%     50.00% |      617424     12.50%     62.49% |      617840     12.51%     75.00% |      617461     12.50%     87.50% |      617636     12.50%    100.00% (Unspecified)
system.caches.L2Cache_Controller.Mem_Data::total      4940472                       (Unspecified)
system.caches.L2Cache_Controller.Mem_Ack |      601366     12.50%     12.50% |      601440     12.51%     25.01% |      600818     12.49%     37.50% |      600956     12.50%     50.00% |      601042     12.50%     62.49% |      601459     12.51%     75.00% |      601082     12.50%     87.50% |      601253     12.50%    100.00% (Unspecified)
system.caches.L2Cache_Controller.Mem_Ack::total      4809416                       (Unspecified)
system.caches.L2Cache_Controller.WB_Data |        2326     13.36%     13.36% |        2196     12.62%     25.98% |        1800     10.34%     36.32% |        2054     11.80%     48.13% |        1970     11.32%     59.45% |        2467     14.17%     73.62% |        2294     13.18%     86.80% |        2297     13.20%    100.00% (Unspecified)
system.caches.L2Cache_Controller.WB_Data::total        17404                       (Unspecified)
system.caches.L2Cache_Controller.WB_Data_clean |          11     10.19%     10.19% |          19     17.59%     27.78% |          18     16.67%     44.44% |           9      8.33%     52.78% |          13     12.04%     64.81% |          13     12.04%     76.85% |           4      3.70%     80.56% |          21     19.44%    100.00% (Unspecified)
system.caches.L2Cache_Controller.WB_Data_clean::total          108                       (Unspecified)
system.caches.L2Cache_Controller.Ack     |        2524     12.98%     12.98% |        2462     12.66%     25.64% |        2473     12.72%     38.35% |        1903      9.79%     48.14% |        2692     13.84%     61.98% |        2667     13.71%     75.69% |        2498     12.84%     88.54% |        2229     11.46%    100.00% (Unspecified)
system.caches.L2Cache_Controller.Ack::total        19448                       (Unspecified)
system.caches.L2Cache_Controller.Ack_all |        2313     12.72%     12.72% |        2492     13.71%     26.43% |        2317     12.75%     39.18% |        2139     11.77%     50.94% |        2343     12.89%     63.83% |        2211     12.16%     75.99% |        2186     12.02%     88.02% |        2178     11.98%    100.00% (Unspecified)
system.caches.L2Cache_Controller.Ack_all::total        18179                       (Unspecified)
system.caches.L2Cache_Controller.Unblock |          95     25.07%     25.07% |          61     16.09%     41.16% |          18      4.75%     45.91% |           9      2.37%     48.28% |          13      3.43%     51.72% |          13      3.43%     55.15% |         149     39.31%     94.46% |          21      5.54%    100.00% (Unspecified)
system.caches.L2Cache_Controller.Unblock::total          379                       (Unspecified)
system.caches.L2Cache_Controller.Exclusive_Unblock |      618252     12.51%     12.51% |      618374     12.51%     25.02% |      617188     12.49%     37.50% |      617620     12.49%     49.99% |      617602     12.49%     62.49% |      618263     12.51%     75.00% |      618046     12.50%     87.50% |      618037     12.50%    100.00% (Unspecified)
system.caches.L2Cache_Controller.Exclusive_Unblock::total      4943382                       (Unspecified)
system.caches.L2Cache_Controller.NP.L1_GET_INSTR |         419     13.09%     13.09% |         405     12.66%     25.75% |         404     12.62%     38.38% |         325     10.16%     48.53% |         427     13.34%     61.88% |         421     13.16%     75.03% |         403     12.59%     87.63% |         396     12.38%    100.00% (Unspecified)
system.caches.L2Cache_Controller.NP.L1_GET_INSTR::total         3200                       (Unspecified)
system.caches.L2Cache_Controller.NP.L1_GETS |      298933     12.50%     12.50% |      299030     12.51%     25.01% |      298752     12.50%     37.51% |      298782     12.50%     50.00% |      298788     12.50%     62.50% |      298921     12.50%     75.00% |      298765     12.50%     87.50% |      298879     12.50%    100.00% (Unspecified)
system.caches.L2Cache_Controller.NP.L1_GETS::total      2390850                       (Unspecified)
system.caches.L2Cache_Controller.NP.L1_GETX |      318398     12.50%     12.50% |      318390     12.50%     25.01% |      318046     12.49%     37.50% |      318233     12.50%     49.99% |      318211     12.50%     62.49% |      318501     12.51%     75.00% |      318298     12.50%     87.50% |      318362     12.50%    100.00% (Unspecified)
system.caches.L2Cache_Controller.NP.L1_GETX::total      2546439                       (Unspecified)
system.caches.L2Cache_Controller.SS.L1_GET_INSTR |        1911     11.56%     11.56% |        2831     17.13%     28.69% |        1963     11.88%     40.57% |        1370      8.29%     48.86% |        2026     12.26%     61.12% |        2064     12.49%     73.61% |        1958     11.85%     85.45% |        2404     14.55%    100.00% (Unspecified)
system.caches.L2Cache_Controller.SS.L1_GET_INSTR::total        16527                       (Unspecified)
system.caches.L2Cache_Controller.SS.L1_GETS |        2976     28.33%     28.33% |        1423     13.54%     41.87% |        1394     13.27%     55.14% |         915      8.71%     63.85% |         781      7.43%     71.28% |         892      8.49%     79.77% |         968      9.21%     88.99% |        1157     11.01%    100.00% (Unspecified)
system.caches.L2Cache_Controller.SS.L1_GETS::total        10506                       (Unspecified)
system.caches.L2Cache_Controller.SS.L1_GETX |          70     81.40%     81.40% |           0      0.00%     81.40% |           0      0.00%     81.40% |           0      0.00%     81.40% |           0      0.00%     81.40% |           0      0.00%     81.40% |          16     18.60%    100.00% |           0      0.00%    100.00% (Unspecified)
system.caches.L2Cache_Controller.SS.L1_GETX::total           86                       (Unspecified)
system.caches.L2Cache_Controller.SS.L1_UPGRADE |          14      7.57%      7.57% |          42     22.70%     30.27% |           0      0.00%     30.27% |           0      0.00%     30.27% |           0      0.00%     30.27% |           0      0.00%     30.27% |         129     69.73%    100.00% |           0      0.00%    100.00% (Unspecified)
system.caches.L2Cache_Controller.SS.L1_UPGRADE::total          185                       (Unspecified)
system.caches.L2Cache_Controller.SS.L2_Replacement_clean |         448     13.05%     13.05% |         444     12.93%     25.98% |         441     12.85%     38.83% |         345     10.05%     48.88% |         456     13.28%     62.16% |         451     13.14%     75.30% |         417     12.15%     87.45% |         431     12.55%    100.00% (Unspecified)
system.caches.L2Cache_Controller.SS.L2_Replacement_clean::total         3433                       (Unspecified)
system.caches.L2Cache_Controller.M.L1_GET_INSTR |           1      8.33%      8.33% |           2     16.67%     25.00% |           1      8.33%     33.33% |           0      0.00%     33.33% |           0      0.00%     33.33% |           2     16.67%     50.00% |           3     25.00%     75.00% |           3     25.00%    100.00% (Unspecified)
system.caches.L2Cache_Controller.M.L1_GET_INSTR::total           12                       (Unspecified)
system.caches.L2Cache_Controller.M.L1_GETS |         527     13.35%     13.35% |         610     15.45%     28.79% |         367      9.29%     38.09% |         458     11.60%     49.68% |         477     12.08%     61.76% |         432     10.94%     72.70% |         604     15.30%     88.00% |         474     12.00%    100.00% (Unspecified)
system.caches.L2Cache_Controller.M.L1_GETS::total         3949                       (Unspecified)
system.caches.L2Cache_Controller.M.L1_GETX |         322     16.47%     16.47% |         318     16.27%     32.74% |          37      1.89%     34.63% |         158      8.08%     42.71% |         132      6.75%     49.46% |         418     21.38%     70.84% |         241     12.33%     83.17% |         329     16.83%    100.00% (Unspecified)
system.caches.L2Cache_Controller.M.L1_GETX::total         1955                       (Unspecified)
system.caches.L2Cache_Controller.M.L2_Replacement |      312604     12.50%     12.50% |      312561     12.50%     25.00% |      312542     12.50%     37.50% |      312568     12.50%     50.00% |      312513     12.50%     62.50% |      312559     12.50%     75.00% |      312514     12.50%     87.50% |      312551     12.50%    100.00% (Unspecified)
system.caches.L2Cache_Controller.M.L2_Replacement::total      2500412                       (Unspecified)
system.caches.L2Cache_Controller.M.L2_Replacement_clean |      284207     12.50%     12.50% |      284234     12.50%     25.00% |      284159     12.50%     37.50% |      284195     12.50%     50.00% |      284216     12.50%     62.50% |      284222     12.50%     75.00% |      284233     12.50%     87.50% |      284227     12.50%    100.00% (Unspecified)
system.caches.L2Cache_Controller.M.L2_Replacement_clean::total      2273693                       (Unspecified)
system.caches.L2Cache_Controller.MT.L1_GETS |          95     25.07%     25.07% |          61     16.09%     41.16% |          18      4.75%     45.91% |           9      2.37%     48.28% |          13      3.43%     51.72% |          13      3.43%     55.15% |         149     39.31%     94.46% |          21      5.54%    100.00% (Unspecified)
system.caches.L2Cache_Controller.MT.L1_GETS::total          379                       (Unspecified)
system.caches.L2Cache_Controller.MT.L1_PUTX |      606904     12.50%     12.50% |      606958     12.50%     25.01% |      606336     12.49%     37.50% |      606601     12.50%     50.00% |      606567     12.50%     62.49% |      606867     12.50%     75.00% |      606813     12.50%     87.50% |      606827     12.50%    100.00% (Unspecified)
system.caches.L2Cache_Controller.MT.L1_PUTX::total      4853873                       (Unspecified)
system.caches.L2Cache_Controller.MT.L2_Replacement |         271     16.38%     16.38% |         221     13.36%     29.75% |          42      2.54%     32.29% |         170     10.28%     42.56% |         121      7.32%     49.88% |         350     21.16%     71.04% |         186     11.25%     82.29% |         293     17.71%    100.00% (Unspecified)
system.caches.L2Cache_Controller.MT.L2_Replacement::total         1654                       (Unspecified)
system.caches.L2Cache_Controller.MT.L2_Replacement_clean |        3836     12.69%     12.69% |        3981     13.17%     25.86% |        3634     12.02%     37.89% |        3678     12.17%     50.05% |        3736     12.36%     62.42% |        3877     12.83%     75.24% |        3732     12.35%     87.59% |        3751     12.41%    100.00% (Unspecified)
system.caches.L2Cache_Controller.MT.L2_Replacement_clean::total        30225                       (Unspecified)
system.caches.L2Cache_Controller.M_I.L1_GET_INSTR |           3     42.86%     42.86% |           0      0.00%     42.86% |           0      0.00%     42.86% |           2     28.57%     71.43% |           0      0.00%     71.43% |           0      0.00%     71.43% |           1     14.29%     85.71% |           1     14.29%    100.00% (Unspecified)
system.caches.L2Cache_Controller.M_I.L1_GET_INSTR::total            7                       (Unspecified)
system.caches.L2Cache_Controller.M_I.L1_GETS |           0      0.00%      0.00% |           1     33.33%     33.33% |           0      0.00%     33.33% |           0      0.00%     33.33% |           0      0.00%     33.33% |           0      0.00%     33.33% |           1     33.33%     66.67% |           1     33.33%    100.00% (Unspecified)
system.caches.L2Cache_Controller.M_I.L1_GETS::total            3                       (Unspecified)
system.caches.L2Cache_Controller.M_I.L1_GETX |           0      0.00%      0.00% |           0      0.00%      0.00% |           0      0.00%      0.00% |           0      0.00%      0.00% |           0      0.00%      0.00% |           1    100.00%    100.00% |           0      0.00%    100.00% |           0      0.00%    100.00% (Unspecified)
system.caches.L2Cache_Controller.M_I.L1_GETX::total            1                       (Unspecified)
system.caches.L2Cache_Controller.M_I.Mem_Ack |      601366     12.50%     12.50% |      601440     12.51%     25.01% |      600818     12.49%     37.50% |      600956     12.50%     50.00% |      601042     12.50%     62.49% |      601459     12.51%     75.00% |      601082     12.50%     87.50% |      601253     12.50%    100.00% (Unspecified)
system.caches.L2Cache_Controller.M_I.Mem_Ack::total      4809416                       (Unspecified)
system.caches.L2Cache_Controller.MT_I.WB_Data |         269     16.55%     16.55% |         216     13.29%     29.85% |          41      2.52%     32.37% |         163     10.03%     42.40% |         112      6.89%     49.29% |         347     21.35%     70.65% |         185     11.38%     82.03% |         292     17.97%    100.00% (Unspecified)
system.caches.L2Cache_Controller.MT_I.WB_Data::total         1625                       (Unspecified)
system.caches.L2Cache_Controller.MT_I.Ack_all |           2      6.90%      6.90% |           5     17.24%     24.14% |           1      3.45%     27.59% |           7     24.14%     51.72% |           9     31.03%     82.76% |           3     10.34%     93.10% |           1      3.45%     96.55% |           1      3.45%    100.00% (Unspecified)
system.caches.L2Cache_Controller.MT_I.Ack_all::total           29                       (Unspecified)
system.caches.L2Cache_Controller.MCT_I.WB_Data |        1973     12.72%     12.72% |        1938     12.50%     25.22% |        1759     11.34%     36.56% |        1891     12.19%     48.76% |        1858     11.98%     60.74% |        2120     13.67%     74.41% |        1964     12.66%     87.07% |        2005     12.93%    100.00% (Unspecified)
system.caches.L2Cache_Controller.MCT_I.WB_Data::total        15508                       (Unspecified)
system.caches.L2Cache_Controller.MCT_I.Ack_all |        1863     12.66%     12.66% |        2043     13.88%     26.54% |        1875     12.74%     39.28% |        1787     12.14%     51.42% |        1878     12.76%     64.18% |        1757     11.94%     76.12% |        1768     12.01%     88.14% |        1746     11.86%    100.00% (Unspecified)
system.caches.L2Cache_Controller.MCT_I.Ack_all::total        14717                       (Unspecified)
system.caches.L2Cache_Controller.I_I.Ack |        2524     12.98%     12.98% |        2462     12.66%     25.64% |        2473     12.72%     38.35% |        1903      9.79%     48.14% |        2692     13.84%     61.98% |        2667     13.71%     75.69% |        2498     12.84%     88.54% |        2229     11.46%    100.00% (Unspecified)
system.caches.L2Cache_Controller.I_I.Ack::total        19448                       (Unspecified)
system.caches.L2Cache_Controller.I_I.Ack_all |         448     13.05%     13.05% |         444     12.93%     25.98% |         441     12.85%     38.83% |         345     10.05%     48.88% |         456     13.28%     62.16% |         451     13.14%     75.30% |         417     12.15%     87.45% |         431     12.55%    100.00% (Unspecified)
system.caches.L2Cache_Controller.I_I.Ack_all::total         3433                       (Unspecified)
system.caches.L2Cache_Controller.ISS.L1_GETS |          11     17.19%     17.19% |          14     21.88%     39.06% |          12     18.75%     57.81% |           9     14.06%     71.88% |           4      6.25%     78.12% |           6      9.38%     87.50% |           2      3.12%     90.62% |           6      9.38%    100.00% (Unspecified)
system.caches.L2Cache_Controller.ISS.L1_GETS::total           64                       (Unspecified)
system.caches.L2Cache_Controller.ISS.Mem_Data |      298922     12.50%     12.50% |      299015     12.51%     25.01% |      298739     12.50%     37.51% |      298772     12.50%     50.00% |      298783     12.50%     62.50% |      298913     12.50%     75.00% |      298760     12.50%     87.50% |      298873     12.50%    100.00% (Unspecified)
system.caches.L2Cache_Controller.ISS.Mem_Data::total      2390777                       (Unspecified)
system.caches.L2Cache_Controller.IS.L1_GET_INSTR |         449     12.36%     12.36% |         465     12.80%     25.16% |         390     10.73%     35.89% |         435     11.97%     47.87% |         516     14.20%     62.07% |         500     13.76%     75.83% |         487     13.40%     89.24% |         391     10.76%    100.00% (Unspecified)
system.caches.L2Cache_Controller.IS.L1_GET_INSTR::total         3633                       (Unspecified)
system.caches.L2Cache_Controller.IS.L1_GETS |          26     28.57%     28.57% |          17     18.68%     47.25% |          11     12.09%     59.34% |           7      7.69%     67.03% |           5      5.49%     72.53% |          12     13.19%     85.71% |           3      3.30%     89.01% |          10     10.99%    100.00% (Unspecified)
system.caches.L2Cache_Controller.IS.L1_GETS::total           91                       (Unspecified)
system.caches.L2Cache_Controller.IS.Mem_Data |         430     13.17%     13.17% |         419     12.84%     26.01% |         416     12.75%     38.76% |         334     10.23%     48.99% |         431     13.20%     62.19% |         427     13.08%     75.28% |         405     12.41%     87.68% |         402     12.32%    100.00% (Unspecified)
system.caches.L2Cache_Controller.IS.Mem_Data::total         3264                       (Unspecified)
system.caches.L2Cache_Controller.IM.Mem_Data |      318398     12.50%     12.50% |      318389     12.50%     25.01% |      318045     12.49%     37.50% |      318232     12.50%     49.99% |      318210     12.50%     62.49% |      318500     12.51%     75.00% |      318296     12.50%     87.50% |      318361     12.50%    100.00% (Unspecified)
system.caches.L2Cache_Controller.IM.Mem_Data::total      2546431                       (Unspecified)
system.caches.L2Cache_Controller.SS_MB.L1_GETS |           0      0.00%      0.00% |           0      0.00%      0.00% |           0      0.00%      0.00% |           0      0.00%      0.00% |           0      0.00%      0.00% |           0      0.00%      0.00% |         207    100.00%    100.00% |           0      0.00%    100.00% (Unspecified)
system.caches.L2Cache_Controller.SS_MB.L1_GETS::total          207                       (Unspecified)
system.caches.L2Cache_Controller.SS_MB.Exclusive_Unblock |          84     31.00%     31.00% |          42     15.50%     46.49% |           0      0.00%     46.49% |           0      0.00%     46.49% |           0      0.00%     46.49% |           0      0.00%     46.49% |         145     53.51%    100.00% |           0      0.00%    100.00% (Unspecified)
system.caches.L2Cache_Controller.SS_MB.Exclusive_Unblock::total          271                       (Unspecified)
system.caches.L2Cache_Controller.MT_MB.L1_GETS |           0      0.00%      0.00% |           0      0.00%      0.00% |           0      0.00%      0.00% |           0      0.00%      0.00% |           0      0.00%      0.00% |           0      0.00%      0.00% |           0      0.00%      0.00% |           3    100.00%    100.00% (Unspecified)
system.caches.L2Cache_Controller.MT_MB.L1_GETS::total            3                       (Unspecified)
system.caches.L2Cache_Controller.MT_MB.Exclusive_Unblock |      618168     12.51%     12.51% |      618332     12.51%     25.01% |      617188     12.49%     37.50% |      617620     12.49%     49.99% |      617602     12.49%     62.49% |      618263     12.51%     75.00% |      617901     12.50%     87.50% |      618037     12.50%    100.00% (Unspecified)
system.caches.L2Cache_Controller.MT_MB.Exclusive_Unblock::total      4943111                       (Unspecified)
system.caches.L2Cache_Controller.MT_IIB.L1_GETS |           8      6.02%      6.02% |           7      5.26%     11.28% |           1      0.75%     12.03% |           1      0.75%     12.78% |           1      0.75%     13.53% |           2      1.50%     15.04% |         112     84.21%     99.25% |           1      0.75%    100.00% (Unspecified)
system.caches.L2Cache_Controller.MT_IIB.L1_GETS::total          133                       (Unspecified)
system.caches.L2Cache_Controller.MT_IIB.WB_Data |          84     31.00%     31.00% |          42     15.50%     46.49% |           0      0.00%     46.49% |           0      0.00%     46.49% |           0      0.00%     46.49% |           0      0.00%     46.49% |         145     53.51%    100.00% |           0      0.00%    100.00% (Unspecified)
system.caches.L2Cache_Controller.MT_IIB.WB_Data::total          271                       (Unspecified)
system.caches.L2Cache_Controller.MT_IIB.WB_Data_clean |          11     10.19%     10.19% |          19     17.59%     27.78% |          18     16.67%     44.44% |           9      8.33%     52.78% |          13     12.04%     64.81% |          13     12.04%     76.85% |           4      3.70%     80.56% |          21     19.44%    100.00% (Unspecified)
system.caches.L2Cache_Controller.MT_IIB.WB_Data_clean::total          108                       (Unspecified)
system.caches.L2Cache_Controller.MT_SB.L1_GETS |           5     33.33%     33.33% |           7     46.67%     80.00% |           0      0.00%     80.00% |           0      0.00%     80.00% |           0      0.00%     80.00% |           1      6.67%     86.67% |           1      6.67%     93.33% |           1      6.67%    100.00% (Unspecified)
system.caches.L2Cache_Controller.MT_SB.L1_GETS::total           15                       (Unspecified)
system.caches.L2Cache_Controller.MT_SB.L1_UPGRADE |           0      0.00%      0.00% |           0      0.00%      0.00% |           0      0.00%      0.00% |           0      0.00%      0.00% |           0      0.00%      0.00% |           0      0.00%      0.00% |          42    100.00%    100.00% |           0      0.00%    100.00% (Unspecified)
system.caches.L2Cache_Controller.MT_SB.L1_UPGRADE::total           42                       (Unspecified)
system.caches.L2Cache_Controller.MT_SB.Unblock |          95     25.07%     25.07% |          61     16.09%     41.16% |          18      4.75%     45.91% |           9      2.37%     48.28% |          13      3.43%     51.72% |          13      3.43%     55.15% |         149     39.31%     94.46% |          21      5.54%    100.00% (Unspecified)
system.caches.L2Cache_Controller.MT_SB.Unblock::total          379                       (Unspecified)
system.caches.RequestType.LD.latency_hist_seqr::bucket_size          512                       (Unspecified)
system.caches.RequestType.LD.latency_hist_seqr::max_bucket         5119                       (Unspecified)
system.caches.RequestType.LD.latency_hist_seqr::samples      5280034                       (Unspecified)
system.caches.RequestType.LD.latency_hist_seqr::mean   278.491072                       (Unspecified)
system.caches.RequestType.LD.latency_hist_seqr::gmean    17.808010                       (Unspecified)
system.caches.RequestType.LD.latency_hist_seqr::stdev   370.277142                       (Unspecified)
system.caches.RequestType.LD.latency_hist_seqr |     3980567     75.39%     75.39% |     1185121     22.45%     97.83% |       73775      1.40%     99.23% |        3795      0.07%     99.30% |       21081      0.40%     99.70% |       14728      0.28%     99.98% |         934      0.02%    100.00% |          32      0.00%    100.00% |           1      0.00%    100.00% |           0      0.00%    100.00% (Unspecified)
system.caches.RequestType.LD.latency_hist_seqr::total      5280034                       (Unspecified)
system.caches.RequestType.LD.hit_latency_hist_seqr::bucket_size            1                       (Unspecified)
system.caches.RequestType.LD.hit_latency_hist_seqr::max_bucket            9                       (Unspecified)
system.caches.RequestType.LD.hit_latency_hist_seqr::samples      2874204                       (Unspecified)
system.caches.RequestType.LD.hit_latency_hist_seqr::mean     1.000162                       (Unspecified)
system.caches.RequestType.LD.hit_latency_hist_seqr::gmean     1.000112                       (Unspecified)
system.caches.RequestType.LD.hit_latency_hist_seqr::stdev     0.012718                       (Unspecified)
system.caches.RequestType.LD.hit_latency_hist_seqr |           0      0.00%      0.00% |     2873739     99.98%     99.98% |         465      0.02%    100.00% |           0      0.00%    100.00% |           0      0.00%    100.00% |           0      0.00%    100.00% |           0      0.00%    100.00% |           0      0.00%    100.00% |           0      0.00%    100.00% |           0      0.00%    100.00% (Unspecified)
system.caches.RequestType.LD.hit_latency_hist_seqr::total      2874204                       (Unspecified)
system.caches.RequestType.LD.miss_latency_hist_seqr::bucket_size          512                       (Unspecified)
system.caches.RequestType.LD.miss_latency_hist_seqr::max_bucket         5119                       (Unspecified)
system.caches.RequestType.LD.miss_latency_hist_seqr::samples      2405830                       (Unspecified)
system.caches.RequestType.LD.miss_latency_hist_seqr::mean   610.004721                       (Unspecified)
system.caches.RequestType.LD.miss_latency_hist_seqr::gmean   555.451374                       (Unspecified)
system.caches.RequestType.LD.miss_latency_hist_seqr::stdev   314.656982                       (Unspecified)
system.caches.RequestType.LD.miss_latency_hist_seqr |     1106363     45.99%     45.99% |     1185121     49.26%     95.25% |       73775      3.07%     98.31% |        3795      0.16%     98.47% |       21081      0.88%     99.35% |       14728      0.61%     99.96% |         934      0.04%    100.00% |          32      0.00%    100.00% |           1      0.00%    100.00% |           0      0.00%    100.00% (Unspecified)
system.caches.RequestType.LD.miss_latency_hist_seqr::total      2405830                       (Unspecified)
system.caches.RequestType.ST.latency_hist_seqr::bucket_size          512                       (Unspecified)
system.caches.RequestType.ST.latency_hist_seqr::max_bucket         5119                       (Unspecified)
system.caches.RequestType.ST.latency_hist_seqr::samples     20344746                       (Unspecified)
system.caches.RequestType.ST.latency_hist_seqr::mean    79.173818                       (Unspecified)
system.caches.RequestType.ST.latency_hist_seqr::gmean     2.223381                       (Unspecified)
system.caches.RequestType.ST.latency_hist_seqr::stdev   234.772682                       (Unspecified)
system.caches.RequestType.ST.latency_hist_seqr |    18978522     93.28%     93.28% |     1254640      6.17%     99.45% |       69044      0.34%     99.79% |        2658      0.01%     99.80% |       21836      0.11%     99.91% |       17316      0.09%    100.00% |         717      0.00%    100.00% |          13      0.00%    100.00% |           0      0.00%    100.00% |           0      0.00%    100.00% (Unspecified)
system.caches.RequestType.ST.latency_hist_seqr::total     20344746                       (Unspecified)
system.caches.RequestType.ST.hit_latency_hist_seqr::bucket_size          512                       (Unspecified)
system.caches.RequestType.ST.hit_latency_hist_seqr::max_bucket         5119                       (Unspecified)
system.caches.RequestType.ST.hit_latency_hist_seqr::samples     17798335                       (Unspecified)
system.caches.RequestType.ST.hit_latency_hist_seqr::mean     1.007002                       (Unspecified)
system.caches.RequestType.ST.hit_latency_hist_seqr::gmean     1.003546                       (Unspecified)
system.caches.RequestType.ST.hit_latency_hist_seqr::stdev     1.194771                       (Unspecified)
system.caches.RequestType.ST.hit_latency_hist_seqr |    17798312    100.00%    100.00% |          22      0.00%    100.00% |           0      0.00%    100.00% |           0      0.00%    100.00% |           0      0.00%    100.00% |           1      0.00%    100.00% |           0      0.00%    100.00% |           0      0.00%    100.00% |           0      0.00%    100.00% |           0      0.00%    100.00% (Unspecified)
system.caches.RequestType.ST.hit_latency_hist_seqr::total     17798335                       (Unspecified)
system.caches.RequestType.ST.miss_latency_hist_seqr::bucket_size          512                       (Unspecified)
system.caches.RequestType.ST.miss_latency_hist_seqr::max_bucket         5119                       (Unspecified)
system.caches.RequestType.ST.miss_latency_hist_seqr::samples      2546411                       (Unspecified)
system.caches.RequestType.ST.miss_latency_hist_seqr::mean   625.526773                       (Unspecified)
system.caches.RequestType.ST.miss_latency_hist_seqr::gmean   577.760239                       (Unspecified)
system.caches.RequestType.ST.miss_latency_hist_seqr::stdev   314.885697                       (Unspecified)
system.caches.RequestType.ST.miss_latency_hist_seqr |     1180210     46.35%     46.35% |     1254618     49.27%     95.62% |       69044      2.71%     98.33% |        2658      0.10%     98.43% |       21836      0.86%     99.29% |       17315      0.68%     99.97% |         717      0.03%    100.00% |          13      0.00%    100.00% |           0      0.00%    100.00% |           0      0.00%    100.00% (Unspecified)
system.caches.RequestType.ST.miss_latency_hist_seqr::total      2546411                       (Unspecified)
system.caches.RequestType.IFETCH.latency_hist_seqr::bucket_size          256                       (Unspecified)
system.caches.RequestType.IFETCH.latency_hist_seqr::max_bucket         2559                       (Unspecified)
system.caches.RequestType.IFETCH.latency_hist_seqr::samples      6715681                       (Unspecified)
system.caches.RequestType.IFETCH.latency_hist_seqr::mean     1.294223                       (Unspecified)
system.caches.RequestType.IFETCH.latency_hist_seqr::gmean     1.012024                       (Unspecified)
system.caches.RequestType.IFETCH.latency_hist_seqr::stdev     9.288054                       (Unspecified)
system.caches.RequestType.IFETCH.latency_hist_seqr |     6713709     99.97%     99.97% |        1779      0.03%    100.00% |         104      0.00%    100.00% |          40      0.00%    100.00% |          21      0.00%    100.00% |          18      0.00%    100.00% |          10      0.00%    100.00% |           0      0.00%    100.00% |           0      0.00%    100.00% |           0      0.00%    100.00% (Unspecified)
system.caches.RequestType.IFETCH.latency_hist_seqr::total      6715681                       (Unspecified)
system.caches.RequestType.IFETCH.hit_latency_hist_seqr::bucket_size            1                       (Unspecified)
system.caches.RequestType.IFETCH.hit_latency_hist_seqr::max_bucket            9                       (Unspecified)
system.caches.RequestType.IFETCH.hit_latency_hist_seqr::samples      6692309                       (Unspecified)
system.caches.RequestType.IFETCH.hit_latency_hist_seqr::mean     1.000001                       (Unspecified)
system.caches.RequestType.IFETCH.hit_latency_hist_seqr::gmean     1.000001                       (Unspecified)
system.caches.RequestType.IFETCH.hit_latency_hist_seqr::stdev     0.001023                       (Unspecified)
system.caches.RequestType.IFETCH.hit_latency_hist_seqr |           0      0.00%      0.00% |     6692302    100.00%    100.00% |           7      0.00%    100.00% |           0      0.00%    100.00% |           0      0.00%    100.00% |           0      0.00%    100.00% |           0      0.00%    100.00% |           0      0.00%    100.00% |           0      0.00%    100.00% |           0      0.00%    100.00% (Unspecified)
system.caches.RequestType.IFETCH.hit_latency_hist_seqr::total      6692309                       (Unspecified)
system.caches.RequestType.IFETCH.miss_latency_hist_seqr::bucket_size          256                       (Unspecified)
system.caches.RequestType.IFETCH.miss_latency_hist_seqr::max_bucket         2559                       (Unspecified)
system.caches.RequestType.IFETCH.miss_latency_hist_seqr::samples        23372                       (Unspecified)
system.caches.RequestType.IFETCH.miss_latency_hist_seqr::mean    85.541289                       (Unspecified)
system.caches.RequestType.IFETCH.miss_latency_hist_seqr::gmean    31.008664                       (Unspecified)
system.caches.RequestType.IFETCH.miss_latency_hist_seqr::stdev   132.915456                       (Unspecified)
system.caches.RequestType.IFETCH.miss_latency_hist_seqr |       21400     91.56%     91.56% |        1779      7.61%     99.17% |         104      0.44%     99.62% |          40      0.17%     99.79% |          21      0.09%     99.88% |          18      0.08%     99.96% |          10      0.04%    100.00% |           0      0.00%    100.00% |           0      0.00%    100.00% |           0      0.00%    100.00% (Unspecified)
system.caches.RequestType.IFETCH.miss_latency_hist_seqr::total        23372                       (Unspecified)
system.caches.RequestType.RMW_Read.latency_hist_seqr::bucket_size          512                       (Unspecified)
system.caches.RequestType.RMW_Read.latency_hist_seqr::max_bucket         5119                       (Unspecified)
system.caches.RequestType.RMW_Read.latency_hist_seqr::samples        12852                       (Unspecified)
system.caches.RequestType.RMW_Read.latency_hist_seqr::mean    57.396436                       (Unspecified)
system.caches.RequestType.RMW_Read.latency_hist_seqr::gmean     2.584243                       (Unspecified)
system.caches.RequestType.RMW_Read.latency_hist_seqr::stdev   189.987549                       (Unspecified)
system.caches.RequestType.RMW_Read.latency_hist_seqr |       12338     96.00%     96.00% |         470      3.66%     99.66% |          18      0.14%     99.80% |           8      0.06%     99.86% |          14      0.11%     99.97% |           4      0.03%    100.00% |           0      0.00%    100.00% |           0      0.00%    100.00% |           0      0.00%    100.00% |           0      0.00%    100.00% (Unspecified)
system.caches.RequestType.RMW_Read.latency_hist_seqr::total        12852                       (Unspecified)
system.caches.RequestType.RMW_Read.hit_latency_hist_seqr::bucket_size          512                       (Unspecified)
system.caches.RequestType.RMW_Read.hit_latency_hist_seqr::max_bucket         5119                       (Unspecified)
system.caches.RequestType.RMW_Read.hit_latency_hist_seqr::samples        10977                       (Unspecified)
system.caches.RequestType.RMW_Read.hit_latency_hist_seqr::mean    13.930218                       (Unspecified)
system.caches.RequestType.RMW_Read.hit_latency_hist_seqr::gmean     1.356624                       (Unspecified)
system.caches.RequestType.RMW_Read.hit_latency_hist_seqr::stdev    93.280546                       (Unspecified)
system.caches.RequestType.RMW_Read.hit_latency_hist_seqr |       10887     99.18%     99.18% |          82      0.75%     99.93% |           1      0.01%     99.94% |           3      0.03%     99.96% |           3      0.03%     99.99% |           1      0.01%    100.00% |           0      0.00%    100.00% |           0      0.00%    100.00% |           0      0.00%    100.00% |           0      0.00%    100.00% (Unspecified)
system.caches.RequestType.RMW_Read.hit_latency_hist_seqr::total        10977                       (Unspecified)
system.caches.RequestType.RMW_Read.miss_latency_hist_seqr::bucket_size          512                       (Unspecified)
system.caches.RequestType.RMW_Read.miss_latency_hist_seqr::max_bucket         5119                       (Unspecified)
system.caches.RequestType.RMW_Read.miss_latency_hist_seqr::samples         1875                       (Unspecified)
system.caches.RequestType.RMW_Read.miss_latency_hist_seqr::mean   311.865067                       (Unspecified)
system.caches.RequestType.RMW_Read.miss_latency_hist_seqr::gmean   112.415704                       (Unspecified)
system.caches.RequestType.RMW_Read.miss_latency_hist_seqr::stdev   347.426892                       (Unspecified)
system.caches.RequestType.RMW_Read.miss_latency_hist_seqr |        1451     77.39%     77.39% |         388     20.69%     98.08% |          17      0.91%     98.99% |           5      0.27%     99.25% |          11      0.59%     99.84% |           3      0.16%    100.00% |           0      0.00%    100.00% |           0      0.00%    100.00% |           0      0.00%    100.00% |           0      0.00%    100.00% (Unspecified)
system.caches.RequestType.RMW_Read.miss_latency_hist_seqr::total         1875                       (Unspecified)
system.caches.RequestType.Locked_RMW_Read.latency_hist_seqr::bucket_size          256                       (Unspecified)
system.caches.RequestType.Locked_RMW_Read.latency_hist_seqr::max_bucket         2559                       (Unspecified)
system.caches.RequestType.Locked_RMW_Read.latency_hist_seqr::samples         2439                       (Unspecified)
system.caches.RequestType.Locked_RMW_Read.latency_hist_seqr::mean    47.723247                       (Unspecified)
system.caches.RequestType.Locked_RMW_Read.latency_hist_seqr::gmean     2.061492                       (Unspecified)
system.caches.RequestType.Locked_RMW_Read.latency_hist_seqr::stdev   163.193401                       (Unspecified)
system.caches.RequestType.Locked_RMW_Read.latency_hist_seqr |        2241     91.88%     91.88% |         110      4.51%     96.39% |          64      2.62%     99.02% |          19      0.78%     99.79% |           3      0.12%     99.92% |           0      0.00%     99.92% |           0      0.00%     99.92% |           1      0.04%     99.96% |           1      0.04%    100.00% |           0      0.00%    100.00% (Unspecified)
system.caches.RequestType.Locked_RMW_Read.latency_hist_seqr::total         2439                       (Unspecified)
system.caches.RequestType.Locked_RMW_Read.hit_latency_hist_seqr::bucket_size            1                       (Unspecified)
system.caches.RequestType.Locked_RMW_Read.hit_latency_hist_seqr::max_bucket            9                       (Unspecified)
system.caches.RequestType.Locked_RMW_Read.hit_latency_hist_seqr::samples         2068                       (Unspecified)
system.caches.RequestType.Locked_RMW_Read.hit_latency_hist_seqr::mean            1                       (Unspecified)
system.caches.RequestType.Locked_RMW_Read.hit_latency_hist_seqr::gmean            1                       (Unspecified)
system.caches.RequestType.Locked_RMW_Read.hit_latency_hist_seqr |           0      0.00%      0.00% |        2068    100.00%    100.00% |           0      0.00%    100.00% |           0      0.00%    100.00% |           0      0.00%    100.00% |           0      0.00%    100.00% |           0      0.00%    100.00% |           0      0.00%    100.00% |           0      0.00%    100.00% |           0      0.00%    100.00% (Unspecified)
system.caches.RequestType.Locked_RMW_Read.hit_latency_hist_seqr::total         2068                       (Unspecified)
system.caches.RequestType.Locked_RMW_Read.miss_latency_hist_seqr::bucket_size          256                       (Unspecified)
system.caches.RequestType.Locked_RMW_Read.miss_latency_hist_seqr::max_bucket         2559                       (Unspecified)
system.caches.RequestType.Locked_RMW_Read.miss_latency_hist_seqr::samples          371                       (Unspecified)
system.caches.RequestType.Locked_RMW_Read.miss_latency_hist_seqr::mean   308.164420                       (Unspecified)
system.caches.RequestType.Locked_RMW_Read.miss_latency_hist_seqr::gmean   116.270412                       (Unspecified)
system.caches.RequestType.Locked_RMW_Read.miss_latency_hist_seqr::stdev   308.657384                       (Unspecified)
system.caches.RequestType.Locked_RMW_Read.miss_latency_hist_seqr |         173     46.63%     46.63% |         110     29.65%     76.28% |          64     17.25%     93.53% |          19      5.12%     98.65% |           3      0.81%     99.46% |           0      0.00%     99.46% |           0      0.00%     99.46% |           1      0.27%     99.73% |           1      0.27%    100.00% |           0      0.00%    100.00% (Unspecified)
system.caches.RequestType.Locked_RMW_Read.miss_latency_hist_seqr::total          371                       (Unspecified)
system.caches.RequestType.Locked_RMW_Write.latency_hist_seqr::bucket_size            1                       (Unspecified)
system.caches.RequestType.Locked_RMW_Write.latency_hist_seqr::max_bucket            9                       (Unspecified)
system.caches.RequestType.Locked_RMW_Write.latency_hist_seqr::samples         2439                       (Unspecified)
system.caches.RequestType.Locked_RMW_Write.latency_hist_seqr::mean            1                       (Unspecified)
system.caches.RequestType.Locked_RMW_Write.latency_hist_seqr::gmean            1                       (Unspecified)
[...]
system.o3Cpu7.iew.squashCycles                   4661                       # Number of cycles IEW is squashing (Cycle)
system.o3Cpu7.iew.blockCycles                   54954                       # Number of cycles IEW is blocking (Cycle)
system.o3Cpu7.iew.unblockCycles             123113003                       # Number of cycles IEW is unblocking (Cycle)
system.o3Cpu7.iew.dispatchedInsts            11076907                       # Number of instructions dispatched to IQ (Count)
system.o3Cpu7.iew.dispSquashedInsts              1844                       # Number of squashed instructions skipped by dispatch (Count)
system.o3Cpu7.iew.dispLoadInsts               2326931                       # Number of dispatched load instructions (Count)
system.o3Cpu7.iew.dispStoreInsts              2563426                       # Number of dispatched store instructions (Count)
system.o3Cpu7.iew.dispNonSpecInsts               1801                       # Number of dispatched non-speculative instructions (Count)
system.o3Cpu7.iew.iqFullEvents                    207                       # Number of times the IQ has become full, causing a stall (Count)
system.o3Cpu7.iew.lsqFullEvents             123096004                       # Number of times the LSQ has become full, causing a stall (Count)
system.o3Cpu7.iew.memOrderViolationEvents          635                       # Number of memory order violations (Count)
system.o3Cpu7.iew.predictedTakenIncorrect         3376                       # Number of branches that were predicted taken incorrectly (Count)
system.o3Cpu7.iew.predictedNotTakenIncorrect          682                       # Number of branches that were predicted not taken incorrectly (Count)
system.o3Cpu7.iew.branchMispredicts              4058                       # Number of branch mispredicts detected at execute (Count)
system.o3Cpu7.iew.instsToCommit              11022011                       # Cumulative count of insts sent to commit (Count)
system.o3Cpu7.iew.writebackCount             11021757                       # Cumulative count of insts written-back (Count)
system.o3Cpu7.iew.producerInst                5788889                       # Number of instructions producing a value (Count)
system.o3Cpu7.iew.consumerInst               10904244                       # Number of instructions consuming a value (Count)
system.o3Cpu7.iew.wbRate                     0.053631                       # Insts written-back per cycle ((Count/Cycle))
system.o3Cpu7.iew.wbFanout                   0.530884                       # Average fanout of values written-back ((Count/Count))
system.o3Cpu7.interrupts.clk_domain.clock         3200                       # Clock period in ticks (Tick)
system.o3Cpu7.lsq0.forwLoads                     4438                       # Number of loads that had data forwarded from stores (Count)
system.o3Cpu7.lsq0.squashedLoads                31102                       # Number of loads squashed (Count)
system.o3Cpu7.lsq0.ignoredResponses                20                       # Number of memory responses ignored because the instruction is squashed (Count)
system.o3Cpu7.lsq0.memOrderViolation              635                       # Number of memory ordering violations (Count)
system.o3Cpu7.lsq0.squashedStores                7667                       # Number of stores squashed (Count)
system.o3Cpu7.lsq0.rescheduledLoads                33                       # Number of loads that were rescheduled (Count)
system.o3Cpu7.lsq0.blockedByCache               54342                       # Number of times an access to memory failed due to the cache being blocked (Count)
system.o3Cpu7.lsq0.loadToUse::samples         2295823                       # Distribution of cycle latency between the first time a load is issued and its completion (Unspecified)
system.o3Cpu7.lsq0.loadToUse::mean         436.151356                       # Distribution of cycle latency between the first time a load is issued and its completion (Unspecified)
system.o3Cpu7.lsq0.loadToUse::stdev        404.345543                       # Distribution of cycle latency between the first time a load is issued and its completion (Unspecified)
system.o3Cpu7.lsq0.loadToUse::0-9              569925     24.82%     24.82% # Distribution of cycle latency between the first time a load is issued and its completion (Unspecified)
system.o3Cpu7.lsq0.loadToUse::10-19             19207      0.84%     25.66% # Distribution of cycle latency between the first time a load is issued and its completion (Unspecified)
system.o3Cpu7.lsq0.loadToUse::20-29             13677      0.60%     26.26% # Distribution of cycle latency between the first time a load is issued and its completion (Unspecified)
system.o3Cpu7.lsq0.loadToUse::30-39             17838      0.78%     27.03% # Distribution of cycle latency between the first time a load is issued and its completion (Unspecified)
system.o3Cpu7.lsq0.loadToUse::40-49             13754      0.60%     27.63% # Distribution of cycle latency between the first time a load is issued and its completion (Unspecified)
system.o3Cpu7.lsq0.loadToUse::50-59             12145      0.53%     28.16% # Distribution of cycle latency between the first time a load is issued and its completion (Unspecified)
system.o3Cpu7.lsq0.loadToUse::60-69              9899      0.43%     28.59% # Distribution of cycle latency between the first time a load is issued and its completion (Unspecified)
system.o3Cpu7.lsq0.loadToUse::70-79             10497      0.46%     29.05% # Distribution of cycle latency between the first time a load is issued and its completion (Unspecified)
system.o3Cpu7.lsq0.loadToUse::80-89             10135      0.44%     29.49% # Distribution of cycle latency between the first time a load is issued and its completion (Unspecified)
system.o3Cpu7.lsq0.loadToUse::90-99              9639      0.42%     29.91% # Distribution of cycle latency between the first time a load is issued and its completion (Unspecified)
system.o3Cpu7.lsq0.loadToUse::100-109            8598      0.37%     30.29% # Distribution of cycle latency between the first time a load is issued and its completion (Unspecified)
system.o3Cpu7.lsq0.loadToUse::110-119            7648      0.33%     30.62% # Distribution of cycle latency between the first time a load is issued and its completion (Unspecified)
system.o3Cpu7.lsq0.loadToUse::120-129            7833      0.34%     30.96% # Distribution of cycle latency between the first time a load is issued and its completion (Unspecified)
system.o3Cpu7.lsq0.loadToUse::130-139            7620      0.33%     31.29% # Distribution of cycle latency between the first time a load is issued and its completion (Unspecified)
system.o3Cpu7.lsq0.loadToUse::140-149            7456      0.32%     31.62% # Distribution of cycle latency between the first time a load is issued and its completion (Unspecified)
system.o3Cpu7.lsq0.loadToUse::150-159            6528      0.28%     31.90% # Distribution of cycle latency between the first time a load is issued and its completion (Unspecified)
system.o3Cpu7.lsq0.loadToUse::160-169            6073      0.26%     32.17% # Distribution of cycle latency between the first time a load is issued and its completion (Unspecified)
system.o3Cpu7.lsq0.loadToUse::170-179            6125      0.27%     32.43% # Distribution of cycle latency between the first time a load is issued and its completion (Unspecified)
system.o3Cpu7.lsq0.loadToUse::180-189            6230      0.27%     32.70% # Distribution of cycle latency between the first time a load is issued and its completion (Unspecified)
system.o3Cpu7.lsq0.loadToUse::190-199            5576      0.24%     32.95% # Distribution of cycle latency between the first time a load is issued and its completion (Unspecified)
system.o3Cpu7.lsq0.loadToUse::200-209            5321      0.23%     33.18% # Distribution of cycle latency between the first time a load is issued and its completion (Unspecified)
system.o3Cpu7.lsq0.loadToUse::210-219            4975      0.22%     33.40% # Distribution of cycle latency between the first time a load is issued and its completion (Unspecified)
system.o3Cpu7.lsq0.loadToUse::220-229            4070      0.18%     33.57% # Distribution of cycle latency between the first time a load is issued and its completion (Unspecified)
system.o3Cpu7.lsq0.loadToUse::230-239            3527      0.15%     33.73% # Distribution of cycle latency between the first time a load is issued and its completion (Unspecified)
system.o3Cpu7.lsq0.loadToUse::240-249            3241      0.14%     33.87% # Distribution of cycle latency between the first time a load is issued and its completion (Unspecified)
system.o3Cpu7.lsq0.loadToUse::250-259            3314      0.14%     34.01% # Distribution of cycle latency between the first time a load is issued and its completion (Unspecified)
system.o3Cpu7.lsq0.loadToUse::260-269            3571      0.16%     34.17% # Distribution of cycle latency between the first time a load is issued and its completion (Unspecified)
system.o3Cpu7.lsq0.loadToUse::270-279            3896      0.17%     34.34% # Distribution of cycle latency between the first time a load is issued and its completion (Unspecified)
system.o3Cpu7.lsq0.loadToUse::280-289            3758      0.16%     34.50% # Distribution of cycle latency between the first time a load is issued and its completion (Unspecified)
system.o3Cpu7.lsq0.loadToUse::290-299            3370      0.15%     34.65% # Distribution of cycle latency between the first time a load is issued and its completion (Unspecified)
system.o3Cpu7.lsq0.loadToUse::overflows       1500377     65.35%    100.00% # Distribution of cycle latency between the first time a load is issued and its completion (Unspecified)
system.o3Cpu7.lsq0.loadToUse::min_value             2                       # Distribution of cycle latency between the first time a load is issued and its completion (Unspecified)
system.o3Cpu7.lsq0.loadToUse::max_value          4473                       # Distribution of cycle latency between the first time a load is issued and its completion (Unspecified)
system.o3Cpu7.lsq0.loadToUse::total           2295823                       # Distribution of cycle latency between the first time a load is issued and its completion (Unspecified)
system.o3Cpu7.mmu.dtb.rdAccesses              2317780                       # TLB accesses on read requests (Count)
system.o3Cpu7.mmu.dtb.wrAccesses              2559471                       # TLB accesses on write requests (Count)
system.o3Cpu7.mmu.dtb.rdMisses                   2444                       # TLB misses on read requests (Count)
system.o3Cpu7.mmu.dtb.wrMisses                   1925                       # TLB misses on write requests (Count)
system.o3Cpu7.mmu.dtb.walker.power_state.pwrStateResidencyTicks::UNDEFINED  42116564800                       # Cumulative time (in ticks) in various power states (Tick)
system.o3Cpu7.mmu.itb.rdAccesses                    0                       # TLB accesses on read requests (Count)
system.o3Cpu7.mmu.itb.wrAccesses               804819                       # TLB accesses on write requests (Count)
system.o3Cpu7.mmu.itb.rdMisses                      0                       # TLB misses on read requests (Count)
system.o3Cpu7.mmu.itb.wrMisses                    107                       # TLB misses on write requests (Count)
system.o3Cpu7.mmu.itb.walker.power_state.pwrStateResidencyTicks::UNDEFINED  42116564800                       # Cumulative time (in ticks) in various power states (Tick)
system.o3Cpu7.power_state.pwrStateResidencyTicks::OFF  42116564800                       # Cumulative time (in ticks) in various power states (Tick)
system.o3Cpu7.rename.squashCycles                4661                       # Number of cycles rename is squashing (Cycle)
system.o3Cpu7.rename.idleCycles                535204                       # Number of cycles rename is idle (Cycle)
system.o3Cpu7.rename.blockCycles            123185002                       # Number of cycles rename is blocking (Cycle)
system.o3Cpu7.rename.serializeStallCycles       359984                       # count of cycles rename stalled for serializing inst (Cycle)
system.o3Cpu7.rename.runCycles                 509258                       # Number of cycles rename is running (Cycle)
system.o3Cpu7.rename.unblockCycles           80390395                       # Number of cycles rename is unblocking (Cycle)
system.o3Cpu7.rename.renamedInsts            11088621                       # Number of instructions processed by rename (Count)
system.o3Cpu7.rename.ROBFullEvents               3130                       # Number of times rename has blocked due to ROB full (Count)
system.o3Cpu7.rename.IQFullEvents               19551                       # Number of times rename has blocked due to IQ full (Count)
system.o3Cpu7.rename.LQFullEvents               10883                       # Number of times rename has blocked due to LQ full (Count)
system.o3Cpu7.rename.SQFullEvents            80291500                       # Number of times rename has blocked due to SQ full (Count)
system.o3Cpu7.rename.renamedOperands         13941395                       # Number of destination operands rename has renamed (Count)
system.o3Cpu7.rename.lookups                 35559597                       # Number of register rename lookups that rename has made (Count)
system.o3Cpu7.rename.intLookups               8049376                       # Number of integer rename lookups (Count)
system.o3Cpu7.rename.fpLookups                9617798                       # Number of floating rename lookups (Count)
system.o3Cpu7.rename.committedMaps           13753869                       # Number of HB maps that are committed (Count)
system.o3Cpu7.rename.undoneMaps                187520                       # Number of HB maps that are undone due to squashing (Count)
system.o3Cpu7.rename.serializing                 1910                       # count of serializing insts renamed (Count)
system.o3Cpu7.rename.tempSerializing             2042                       # count of temporary serializing insts renamed (Count)
system.o3Cpu7.rename.skidInsts                6868651                       # count of insts added to the skid buffer (Count)
system.o3Cpu7.rob.reads                     215990231                       # The number of ROB reads (Count)
system.o3Cpu7.rob.writes                     22164422                       # The number of ROB writes (Count)
system.o3Cpu7.thread_0.numInsts               6633659                       # Number of Instructions committed (Count)
system.o3Cpu7.thread_0.numOps                10969226                       # Number of Ops committed (Count)
system.o3Cpu7.thread_0.numMemRefs                   0                       # Number of Memory References (Count)
system.pc.bad_addr.power_state.pwrStateResidencyTicks::UNDEFINED  42116564800                       # Cumulative time (in ticks) in various power states (Tick)
system.pc.com_1.power_state.pwrStateResidencyTicks::UNDEFINED  42116564800                       # Cumulative time (in ticks) in various power states (Tick)
system.pc.default_bus.power_state.pwrStateResidencyTicks::UNDEFINED  42116564800                       # Cumulative time (in ticks) in various power states (Tick)
system.pc.empty_isa.power_state.pwrStateResidencyTicks::UNDEFINED  42116564800                       # Cumulative time (in ticks) in various power states (Tick)
system.pc.fake_com_2.power_state.pwrStateResidencyTicks::UNDEFINED  42116564800                       # Cumulative time (in ticks) in various power states (Tick)
system.pc.fake_com_3.power_state.pwrStateResidencyTicks::UNDEFINED  42116564800                       # Cumulative time (in ticks) in various power states (Tick)
system.pc.fake_com_4.power_state.pwrStateResidencyTicks::UNDEFINED  42116564800                       # Cumulative time (in ticks) in various power states (Tick)
system.pc.fake_floppy.power_state.pwrStateResidencyTicks::UNDEFINED  42116564800                       # Cumulative time (in ticks) in various power states (Tick)
system.pc.pci_host.power_state.pwrStateResidencyTicks::UNDEFINED  42116564800                       # Cumulative time (in ticks) in various power states (Tick)
system.pc.south_bridge.cmos.power_state.pwrStateResidencyTicks::UNDEFINED  42116564800                       # Cumulative time (in ticks) in various power states (Tick)
system.pc.south_bridge.dma1.power_state.pwrStateResidencyTicks::UNDEFINED  42116564800                       # Cumulative time (in ticks) in various power states (Tick)
system.pc.south_bridge.ide.disks0.IdeDisk.dmaReadFullPages            0                       # Number of full page size DMA reads (not PRD). (Count)
system.pc.south_bridge.ide.disks0.IdeDisk.dmaReadBytes            0                       # Number of bytes transfered via DMA reads (not PRD). (Byte)
system.pc.south_bridge.ide.disks0.IdeDisk.dmaReadTxs            0                       # Number of DMA read transactions (not PRD). (Count)
system.pc.south_bridge.ide.disks0.IdeDisk.dmaWriteFullPages            0                       # Number of full page size DMA writes. (Count)
system.pc.south_bridge.ide.disks0.IdeDisk.dmaWriteBytes            0                       # Number of bytes transfered via DMA writes. (Byte)
system.pc.south_bridge.ide.disks0.IdeDisk.dmaWriteTxs            0                       # Number of DMA write transactions. (Count)
system.pc.south_bridge.ide.disks1.IdeDisk.dmaReadFullPages            0                       # Number of full page size DMA reads (not PRD). (Count)
system.pc.south_bridge.ide.disks1.IdeDisk.dmaReadBytes            0                       # Number of bytes transfered via DMA reads (not PRD). (Byte)
system.pc.south_bridge.ide.disks1.IdeDisk.dmaReadTxs            0                       # Number of DMA read transactions (not PRD). (Count)
system.pc.south_bridge.ide.disks1.IdeDisk.dmaWriteFullPages            0                       # Number of full page size DMA writes. (Count)
system.pc.south_bridge.ide.disks1.IdeDisk.dmaWriteBytes            0                       # Number of bytes transfered via DMA writes. (Byte)
system.pc.south_bridge.ide.disks1.IdeDisk.dmaWriteTxs            0                       # Number of DMA write transactions. (Count)
system.pc.south_bridge.ide.power_state.pwrStateResidencyTicks::UNDEFINED  42116564800                       # Cumulative time (in ticks) in various power states (Tick)
system.pc.south_bridge.io_apic.power_state.pwrStateResidencyTicks::UNDEFINED  42116564800                       # Cumulative time (in ticks) in various power states (Tick)
system.pc.south_bridge.keyboard.power_state.pwrStateResidencyTicks::UNDEFINED  42116564800                       # Cumulative time (in ticks) in various power states (Tick)
system.pc.south_bridge.pic1.power_state.pwrStateResidencyTicks::UNDEFINED  42116564800                       # Cumulative time (in ticks) in various power states (Tick)
system.pc.south_bridge.pic2.power_state.pwrStateResidencyTicks::UNDEFINED  42116564800                       # Cumulative time (in ticks) in various power states (Tick)
system.pc.south_bridge.pit.power_state.pwrStateResidencyTicks::UNDEFINED  42116564800                       # Cumulative time (in ticks) in various power states (Tick)
system.pc.south_bridge.speaker.power_state.pwrStateResidencyTicks::UNDEFINED  42116564800                       # Cumulative time (in ticks) in various power states (Tick)
system.workload.inst.arm                            0                       # number of arm instructions executed (Count)
system.workload.inst.quiesce                        0                       # number of quiesce instructions executed (Count)

---------- End Simulation Statistics   ----------
