
---------- Begin Simulation Statistics ----------
simSeconds                                   0.027020                       # Number of seconds simulated (Second)
simTicks                                  27020165650                       # Number of ticks simulated (Tick)
finalTick                                108076400266600                       # Number of ticks from beginning of simulation (restored from checkpoints and never reset) (Tick)
simFreq                                  1000000000000                       # The number of ticks per simulated second ((Tick/Second))
hostSeconds                                   6023.08                       # Real time elapsed on the host (Second)
hostTickRate                                  4486105                       # The number of ticks simulated per host second (ticks/s) ((Tick/Second))
hostMemory                                   20055068                       # Number of bytes of host memory used (Byte)
simInsts                                    228849371                       # Number of instructions simulated (Count)
simOps                                      422062701                       # Number of ops (including micro ops) simulated (Count)
hostInstRate                                    37995                       # Simulator instruction rate (inst/s) ((Count/Second))
hostOpRate                                      70074                       # Simulator op (including micro ops) rate (op/s) ((Count/Second))
system.caches.delayHistogram::bucket_size           32                       # delay histogram for all message (Unspecified)
system.caches.delayHistogram::max_bucket          319                       # delay histogram for all message (Unspecified)
system.caches.delayHistogram::samples        60754644                       # delay histogram for all message (Unspecified)
system.caches.delayHistogram::mean           2.386608                       # delay histogram for all message (Unspecified)
system.caches.delayHistogram::stdev          7.233285                       # delay histogram for all message (Unspecified)
system.caches.delayHistogram             |    59644090     98.17%     98.17% |     1102840      1.82%     99.99% |        7598      0.01%    100.00% |         113      0.00%    100.00% |           1      0.00%    100.00% |           0      0.00%    100.00% |           1      0.00%    100.00% |           0      0.00%    100.00% |           1      0.00%    100.00% |           0      0.00%    100.00% # delay histogram for all message (Unspecified)
system.caches.delayHistogram::total          60754644                       # delay histogram for all message (Unspecified)
system.caches.m_outstandReqHistSeqr::bucket_size            2                       (Unspecified)
system.caches.m_outstandReqHistSeqr::max_bucket           19                       (Unspecified)
system.caches.m_outstandReqHistSeqr::samples     50232348                       (Unspecified)
system.caches.m_outstandReqHistSeqr::mean    12.401185                       (Unspecified)
system.caches.m_outstandReqHistSeqr::gmean    10.800598                       (Unspecified)
system.caches.m_outstandReqHistSeqr::stdev     4.207217                       (Unspecified)
system.caches.m_outstandReqHistSeqr      |     2917800      5.81%      5.81% |     1002534      2.00%      7.80% |      648878      1.29%      9.10% |      703155      1.40%     10.50% |     3995919      7.95%     18.45% |     7914435     15.76%     34.21% |     7184481     14.30%     48.51% |     8850891     17.62%     66.13% |    17014255     33.87%    100.00% |           0      0.00%    100.00% (Unspecified)
system.caches.m_outstandReqHistSeqr::total     50232348                       (Unspecified)
system.caches.m_latencyHistSeqr::bucket_size          512                       (Unspecified)
system.caches.m_latencyHistSeqr::max_bucket         5119                       (Unspecified)
system.caches.m_latencyHistSeqr::samples     50234569                       (Unspecified)
system.caches.m_latencyHistSeqr::mean       63.503291                       (Unspecified)
system.caches.m_latencyHistSeqr::gmean       3.815140                       (Unspecified)
system.caches.m_latencyHistSeqr::stdev     186.471079                       (Unspecified)
system.caches.m_latencyHistSeqr          |    48497787     96.54%     96.54% |     1596373      3.18%     99.72% |       59110      0.12%     99.84% |        7819      0.02%     99.85% |       58303      0.12%     99.97% |       14197      0.03%    100.00% |         882      0.00%    100.00% |          89      0.00%    100.00% |           9      0.00%    100.00% |           0      0.00%    100.00% (Unspecified)
system.caches.m_latencyHistSeqr::total       50234569                       (Unspecified)
system.caches.m_hitLatencyHistSeqr::bucket_size          512                       (Unspecified)
system.caches.m_hitLatencyHistSeqr::max_bucket         5119                       (Unspecified)
system.caches.m_hitLatencyHistSeqr::samples     34233441                       (Unspecified)
system.caches.m_hitLatencyHistSeqr::mean     1.117879                       (Unspecified)
system.caches.m_hitLatencyHistSeqr::gmean     1.081924                       (Unspecified)
system.caches.m_hitLatencyHistSeqr::stdev     1.452353                       (Unspecified)
system.caches.m_hitLatencyHistSeqr       |    34233374    100.00%    100.00% |          53      0.00%    100.00% |          11      0.00%    100.00% |           2      0.00%    100.00% |           0      0.00%    100.00% |           1      0.00%    100.00% |           0      0.00%    100.00% |           0      0.00%    100.00% |           0      0.00%    100.00% |           0      0.00%    100.00% (Unspecified)
system.caches.m_hitLatencyHistSeqr::total     34233441                       (Unspecified)
system.caches.m_missLatencyHistSeqr::bucket_size          512                       (Unspecified)
system.caches.m_missLatencyHistSeqr::max_bucket         5119                       (Unspecified)
system.caches.m_missLatencyHistSeqr::samples     16001128                       (Unspecified)
system.caches.m_missLatencyHistSeqr::mean   196.973088                       (Unspecified)
system.caches.m_missLatencyHistSeqr::gmean    56.552940                       (Unspecified)
system.caches.m_missLatencyHistSeqr::stdev   288.127805                       (Unspecified)
system.caches.m_missLatencyHistSeqr      |    14264413     89.15%     89.15% |     1596320      9.98%     99.12% |       59099      0.37%     99.49% |        7817      0.05%     99.54% |       58303      0.36%     99.91% |       14196      0.09%     99.99% |         882      0.01%    100.00% |          89      0.00%    100.00% |           9      0.00%    100.00% |           0      0.00%    100.00% (Unspecified)
system.caches.m_missLatencyHistSeqr::total     16001128                       (Unspecified)
system.caches.delayVCHist.vnet_0::bucket_size           32                       # delay histogram for vnet_0 (Unspecified)
system.caches.delayVCHist.vnet_0::max_bucket          319                       # delay histogram for vnet_0 (Unspecified)
system.caches.delayVCHist.vnet_0::samples     27432422                       # delay histogram for vnet_0 (Unspecified)
system.caches.delayVCHist.vnet_0::mean       0.192012                       # delay histogram for vnet_0 (Unspecified)
system.caches.delayVCHist.vnet_0::stdev      1.150521                       # delay histogram for vnet_0 (Unspecified)
system.caches.delayVCHist.vnet_0         |    27432139    100.00%    100.00% |         271      0.00%    100.00% |           9      0.00%    100.00% |           1      0.00%    100.00% |           0      0.00%    100.00% |           0      0.00%    100.00% |           1      0.00%    100.00% |           0      0.00%    100.00% |           1      0.00%    100.00% |           0      0.00%    100.00% # delay histogram for vnet_0 (Unspecified)
system.caches.delayVCHist.vnet_0::total      27432422                       # delay histogram for vnet_0 (Unspecified)
system.caches.delayVCHist.vnet_1::bucket_size           16                       # delay histogram for vnet_1 (Unspecified)
system.caches.delayVCHist.vnet_1::max_bucket          159                       # delay histogram for vnet_1 (Unspecified)
system.caches.delayVCHist.vnet_1::samples     33134176                       # delay histogram for vnet_1 (Unspecified)
system.caches.delayVCHist.vnet_1::mean       4.216603                       # delay histogram for vnet_1 (Unspecified)
system.caches.delayVCHist.vnet_1::stdev      9.352605                       # delay histogram for vnet_1 (Unspecified)
system.caches.delayVCHist.vnet_1         |    29356629     88.60%     88.60% |     2667276      8.05%     96.65% |      911271      2.75%     99.40% |      191298      0.58%     99.98% |        7086      0.02%    100.00% |         503      0.00%    100.00% |          99      0.00%    100.00% |          13      0.00%    100.00% |           0      0.00%    100.00% |           1      0.00%    100.00% # delay histogram for vnet_1 (Unspecified)
system.caches.delayVCHist.vnet_1::total      33134176                       # delay histogram for vnet_1 (Unspecified)
system.caches.delayVCHist.vnet_2::bucket_size            1                       # delay histogram for vnet_2 (Unspecified)
system.caches.delayVCHist.vnet_2::max_bucket            9                       # delay histogram for vnet_2 (Unspecified)
system.caches.delayVCHist.vnet_2::samples       188046                       # delay histogram for vnet_2 (Unspecified)
system.caches.delayVCHist.vnet_2::mean       0.087542                       # delay histogram for vnet_2 (Unspecified)
system.caches.delayVCHist.vnet_2::stdev      0.409224                       # delay histogram for vnet_2 (Unspecified)
system.caches.delayVCHist.vnet_2         |      179816     95.62%     95.62% |           0      0.00%     95.62% |        8229      4.38%    100.00% |           0      0.00%    100.00% |           1      0.00%    100.00% |           0      0.00%    100.00% |           0      0.00%    100.00% |           0      0.00%    100.00% |           0      0.00%    100.00% |           0      0.00%    100.00% # delay histogram for vnet_2 (Unspecified)
system.caches.delayVCHist.vnet_2::total        188046                       # delay histogram for vnet_2 (Unspecified)
system.caches.L1Cache_Controller.Load    |     6052465     12.41%     12.41% |     6016912     12.34%     24.75% |     6126712     12.56%     37.31% |     6171938     12.66%     49.97% |     5903907     12.11%     62.07% |     6187068     12.69%     74.76% |     6166809     12.65%     87.41% |     6142295     12.59%    100.00% (Unspecified)
system.caches.L1Cache_Controller.Load::total     48768106                       (Unspecified)
system.caches.L1Cache_Controller.Ifetch  |      106919     13.52%     13.52% |       94614     11.97%     25.49% |       98149     12.41%     37.90% |       98365     12.44%     50.34% |       96813     12.24%     62.58% |       98723     12.49%     75.07% |       98376     12.44%     87.51% |       98753     12.49%    100.00% (Unspecified)
system.caches.L1Cache_Controller.Ifetch::total       790712                       (Unspecified)
system.caches.L1Cache_Controller.Store   |       92110     13.63%     13.63% |       82266     12.17%     25.80% |       83662     12.38%     38.18% |       83958     12.42%     50.61% |       83140     12.30%     62.91% |       83499     12.36%     75.27% |       83411     12.34%     87.61% |       83730     12.39%    100.00% (Unspecified)
system.caches.L1Cache_Controller.Store::total       675776                       (Unspecified)
system.caches.L1Cache_Controller.Inv     |       21847     13.06%     13.06% |       20229     12.09%     25.15% |       20683     12.36%     37.51% |       20732     12.39%     49.90% |       20450     12.22%     62.12% |       20654     12.34%     74.46% |       20653     12.34%     86.81% |       22073     13.19%    100.00% (Unspecified)
system.caches.L1Cache_Controller.Inv::total       167321                       (Unspecified)
system.caches.L1Cache_Controller.L1_Replacement |     2014706     12.68%     12.68% |     1963217     12.36%     25.04% |     1983788     12.49%     37.53% |     1978268     12.45%     49.98% |     1994363     12.55%     62.54% |     1994070     12.55%     75.09% |     1994223     12.55%     87.65% |     1962431     12.35%    100.00% (Unspecified)
system.caches.L1Cache_Controller.L1_Replacement::total     15885066                       (Unspecified)
system.caches.L1Cache_Controller.Fwd_GETX |           6      7.32%      7.32% |          10     12.20%     19.51% |          11     13.41%     32.93% |          11     13.41%     46.34% |           7      8.54%     54.88% |          13     15.85%     70.73% |          10     12.20%     82.93% |          14     17.07%    100.00% (Unspecified)
system.caches.L1Cache_Controller.Fwd_GETX::total           82                       (Unspecified)
system.caches.L1Cache_Controller.Fwd_GETS |        2867     13.89%     13.89% |        2684     13.00%     26.89% |        2522     12.22%     39.11% |        2497     12.10%     51.20% |        2517     12.19%     63.40% |        2486     12.04%     75.44% |        2505     12.13%     87.57% |        2565     12.43%    100.00% (Unspecified)
system.caches.L1Cache_Controller.Fwd_GETS::total        20643                       (Unspecified)
system.caches.L1Cache_Controller.Data    |          70     84.34%     84.34% |           1      1.20%     85.54% |           2      2.41%     87.95% |           3      3.61%     91.57% |           1      1.20%     92.77% |           4      4.82%     97.59% |           2      2.41%    100.00% |           0      0.00%    100.00% (Unspecified)
system.caches.L1Cache_Controller.Data::total           83                       (Unspecified)
system.caches.L1Cache_Controller.Data_Exclusive |      715910     12.61%     12.61% |      702948     12.38%     24.99% |      709855     12.50%     37.49% |      707599     12.46%     49.95% |      713632     12.57%     62.52% |      712951     12.56%     75.08% |      713243     12.56%     87.64% |      701871     12.36%    100.00% (Unspecified)
system.caches.L1Cache_Controller.Data_Exclusive::total      5678009                       (Unspecified)
system.caches.L1Cache_Controller.DataS_fromL1 |        2342     11.35%     11.35% |        2542     12.31%     23.66% |        2858     13.84%     37.50% |        2792     13.53%     51.03% |        2489     12.06%     63.09% |        2753     13.34%     76.42% |        2388     11.57%     87.99% |        2479     12.01%    100.00% (Unspecified)
system.caches.L1Cache_Controller.DataS_fromL1::total        20643                       (Unspecified)
system.caches.L1Cache_Controller.Data_all_Acks |     1302273     12.66%     12.66% |     1270691     12.36%     25.02% |     1284241     12.49%     37.51% |     1280995     12.46%     49.97% |     1291068     12.55%     62.52% |     1291541     12.56%     75.08% |     1291550     12.56%     87.64% |     1271012     12.36%    100.00% (Unspecified)
system.caches.L1Cache_Controller.Data_all_Acks::total     10283371                       (Unspecified)
system.caches.L1Cache_Controller.Ack     |       17141     12.97%     12.97% |       16430     12.43%     25.40% |       16448     12.44%     37.84% |       16426     12.43%     50.27% |       16451     12.45%     62.71% |       16434     12.43%     75.14% |       16421     12.42%     87.57% |       16434     12.43%    100.00% (Unspecified)
system.caches.L1Cache_Controller.Ack::total       132185                       (Unspecified)
system.caches.L1Cache_Controller.Ack_all |        2565     13.43%     13.43% |        2351     12.31%     25.73% |        2364     12.37%     38.11% |        2363     12.37%     50.47% |        2374     12.43%     62.90% |        2363     12.37%     75.27% |        2360     12.35%     87.62% |        2365     12.38%    100.00% (Unspecified)
system.caches.L1Cache_Controller.Ack_all::total        19105                       (Unspecified)
system.caches.L1Cache_Controller.WB_Ack  |      730942     12.84%     12.84% |      702742     12.35%     25.19% |      709941     12.47%     37.66% |      707639     12.43%     50.09% |      713742     12.54%     62.63% |      713030     12.53%     75.16% |      713250     12.53%     87.69% |      700580     12.31%    100.00% (Unspecified)
system.caches.L1Cache_Controller.WB_Ack::total      5691866                       (Unspecified)
system.caches.L1Cache_Controller.NP.Load |     2010582     12.63%     12.63% |     1968686     12.37%     25.00% |     1988924     12.50%     37.49% |     1983395     12.46%     49.96% |     1999679     12.56%     62.52% |     1999208     12.56%     75.08% |     1999379     12.56%     87.64% |     1967575     12.36%    100.00% (Unspecified)
system.caches.L1Cache_Controller.NP.Load::total     15917428                       (Unspecified)
system.caches.L1Cache_Controller.NP.Ifetch |        1828     28.76%     28.76% |         200      3.15%     31.91% |         758     11.93%     43.83% |         803     12.63%     56.47% |         434      6.83%     63.29% |         769     12.10%     75.39% |         740     11.64%     87.04% |         824     12.96%    100.00% (Unspecified)
system.caches.L1Cache_Controller.NP.Ifetch::total         6356                       (Unspecified)
system.caches.L1Cache_Controller.NP.Store |        3080     14.21%     14.21% |        2633     12.14%     26.35% |        2674     12.33%     38.69% |        2668     12.31%     50.99% |        2666     12.30%     63.29% |        2663     12.28%     75.57% |        2669     12.31%     87.88% |        2627     12.12%    100.00% (Unspecified)
system.caches.L1Cache_Controller.NP.Store::total        21680                       (Unspecified)
system.caches.L1Cache_Controller.NP.Inv  |       12218     12.70%     12.70% |       11698     12.16%     24.85% |       12046     12.52%     37.37% |       12110     12.58%     49.95% |       11926     12.39%     62.34% |       11965     12.43%     74.78% |       12094     12.57%     87.34% |       12180     12.66%    100.00% (Unspecified)
system.caches.L1Cache_Controller.NP.Inv::total        96237                       (Unspecified)
system.caches.L1Cache_Controller.I.Load  |        1658     12.57%     12.57% |        1807     13.70%     26.26% |        1749     13.26%     39.52% |        1688     12.79%     52.32% |        1534     11.63%     63.94% |        1737     13.17%     77.11% |        1535     11.63%     88.74% |        1485     11.26%    100.00% (Unspecified)
system.caches.L1Cache_Controller.I.Load::total        13193                       (Unspecified)
system.caches.L1Cache_Controller.I.Ifetch |        3442     14.69%     14.69% |        2854     12.18%     26.88% |        2847     12.15%     39.03% |        2833     12.09%     51.12% |        2875     12.27%     63.40% |        2869     12.25%     75.65% |        2859     12.20%     87.85% |        2846     12.15%    100.00% (Unspecified)
system.caches.L1Cache_Controller.I.Ifetch::total        23425                       (Unspecified)
system.caches.L1Cache_Controller.I.Store |           8     16.33%     16.33% |           5     10.20%     26.53% |           7     14.29%     40.82% |           5     10.20%     51.02% |           5     10.20%     61.22% |           7     14.29%     75.51% |           5     10.20%     85.71% |           7     14.29%    100.00% (Unspecified)
system.caches.L1Cache_Controller.I.Store::total           49                       (Unspecified)
system.caches.L1Cache_Controller.I.L1_Replacement |        3807     12.17%     12.17% |        3729     11.92%     24.09% |        3637     11.63%     35.72% |        3670     11.73%     47.45% |        3854     12.32%     59.77% |        3682     11.77%     71.55% |        3765     12.04%     83.58% |        5135     16.42%    100.00% (Unspecified)
system.caches.L1Cache_Controller.I.L1_Replacement::total        31279                       (Unspecified)
system.caches.L1Cache_Controller.S.Load  |     2647631     12.33%     12.33% |     2674042     12.46%     24.79% |     2783606     12.97%     37.76% |     2783932     12.97%     50.72% |     2521147     11.74%     62.47% |     2783710     12.97%     75.43% |     2793496     13.01%     88.45% |     2480216     11.55%    100.00% (Unspecified)
system.caches.L1Cache_Controller.S.Load::total     21467780                       (Unspecified)
system.caches.L1Cache_Controller.S.Ifetch |      101649     13.36%     13.36% |       91560     12.03%     25.39% |       94544     12.42%     37.82% |       94729     12.45%     50.27% |       93504     12.29%     62.55% |       95085     12.50%     75.05% |       94777     12.46%     87.50% |       95083     12.50%    100.00% (Unspecified)
system.caches.L1Cache_Controller.S.Ifetch::total       760931                       (Unspecified)
system.caches.L1Cache_Controller.S.Store |        2495     13.12%     13.12% |        2350     12.35%     25.47% |        2362     12.42%     37.89% |        2360     12.41%     50.29% |        2373     12.48%     62.77% |        2359     12.40%     75.17% |        2358     12.40%     87.57% |        2365     12.43%    100.00% (Unspecified)
system.caches.L1Cache_Controller.S.Store::total        19022                       (Unspecified)
system.caches.L1Cache_Controller.S.Inv   |        9596     13.80%     13.80% |        8517     12.25%     26.05% |        8603     12.37%     38.42% |        8591     12.35%     50.78% |        8497     12.22%     62.99% |        8669     12.47%     75.46% |        8524     12.26%     87.72% |        8539     12.28%    100.00% (Unspecified)
system.caches.L1Cache_Controller.S.Inv::total        69536                       (Unspecified)
system.caches.L1Cache_Controller.S.L1_Replacement |     1279956     12.60%     12.60% |     1256746     12.37%     24.96% |     1270209     12.50%     37.46% |     1266958     12.47%     49.93% |     1276767     12.56%     62.49% |     1277358     12.57%     75.06% |     1277208     12.57%     87.63% |     1256716     12.37%    100.00% (Unspecified)
system.caches.L1Cache_Controller.S.L1_Replacement::total     10161918                       (Unspecified)
system.caches.L1Cache_Controller.E.Load  |     1334607     12.18%     12.18% |     1323485     12.08%     24.27% |     1302501     11.89%     36.16% |     1353077     12.35%     48.51% |     1332509     12.17%     60.68% |     1352913     12.35%     73.03% |     1323121     12.08%     85.11% |     1631070     14.89%    100.00% (Unspecified)
system.caches.L1Cache_Controller.E.Load::total     10953283                       (Unspecified)
system.caches.L1Cache_Controller.E.Store |        5228     12.94%     12.94% |        4985     12.34%     25.27% |        5024     12.43%     37.71% |        5038     12.47%     50.17% |        5017     12.42%     62.59% |        5042     12.48%     75.07% |        5039     12.47%     87.54% |        5036     12.46%    100.00% (Unspecified)
system.caches.L1Cache_Controller.E.Store::total        40409                       (Unspecified)
system.caches.L1Cache_Controller.E.Inv   |          32      2.13%      2.13% |           9      0.60%      2.73% |          23      1.53%      4.26% |          24      1.60%      5.85% |          25      1.66%      7.51% |          17      1.13%      8.64% |          33      2.19%     10.84% |        1341     89.16%    100.00% (Unspecified)
system.caches.L1Cache_Controller.E.Inv::total         1504                       (Unspecified)
system.caches.L1Cache_Controller.E.L1_Replacement |      706401     12.58%     12.58% |      695104     12.38%     24.97% |      702224     12.51%     37.48% |      699911     12.47%     49.95% |      706063     12.58%     62.52% |      705286     12.56%     75.09% |      705542     12.57%     87.66% |      692913     12.34%    100.00% (Unspecified)
system.caches.L1Cache_Controller.E.L1_Replacement::total      5613444                       (Unspecified)
system.caches.L1Cache_Controller.E.Fwd_GETX |           0      0.00%      0.00% |           3     37.50%     37.50% |           1     12.50%     50.00% |           1     12.50%     62.50% |           0      0.00%     62.50% |           1     12.50%     75.00% |           1     12.50%     87.50% |           1     12.50%    100.00% (Unspecified)
system.caches.L1Cache_Controller.E.Fwd_GETX::total            8                       (Unspecified)
system.caches.L1Cache_Controller.E.Fwd_GETS |         295     17.10%     17.10% |         363     21.04%     38.14% |         188     10.90%     49.04% |         171      9.91%     58.96% |         147      8.52%     67.48% |         176     10.20%     77.68% |         156      9.04%     86.72% |         229     13.28%    100.00% (Unspecified)
system.caches.L1Cache_Controller.E.Fwd_GETS::total         1725                       (Unspecified)
system.caches.L1Cache_Controller.M.Load  |       57987     13.93%     13.93% |       48892     11.74%     25.67% |       49932     11.99%     37.66% |       49846     11.97%     49.63% |       49038     11.78%     61.40% |       49500     11.89%     73.29% |       49278     11.83%     85.12% |       61949     14.88%    100.00% (Unspecified)
system.caches.L1Cache_Controller.M.Load::total       416422                       (Unspecified)
system.caches.L1Cache_Controller.M.Store |       81299     13.67%     13.67% |       72293     12.16%     25.83% |       73595     12.38%     38.21% |       73887     12.43%     50.63% |       73079     12.29%     62.92% |       73428     12.35%     75.27% |       73340     12.33%     87.61% |       73695     12.39%    100.00% (Unspecified)
system.caches.L1Cache_Controller.M.Store::total       594616                       (Unspecified)
system.caches.L1Cache_Controller.M.Inv   |           1      6.67%      6.67% |           0      0.00%      6.67% |           0      0.00%      6.67% |           2     13.33%     20.00% |           0      0.00%     20.00% |           1      6.67%     26.67% |           0      0.00%     26.67% |          11     73.33%    100.00% (Unspecified)
system.caches.L1Cache_Controller.M.Inv::total           15                       (Unspecified)
system.caches.L1Cache_Controller.M.L1_Replacement |       24541     31.29%     31.29% |        7638      9.74%     41.03% |        7718      9.84%     50.87% |        7728      9.85%     60.73% |        7679      9.79%     70.52% |        7744      9.87%     80.39% |        7708      9.83%     90.22% |        7667      9.78%    100.00% (Unspecified)
system.caches.L1Cache_Controller.M.L1_Replacement::total        78423                       (Unspecified)
system.caches.L1Cache_Controller.M.Fwd_GETX |           6      8.11%      8.11% |           7      9.46%     17.57% |          10     13.51%     31.08% |          10     13.51%     44.59% |           7      9.46%     54.05% |          12     16.22%     70.27% |           9     12.16%     82.43% |          13     17.57%    100.00% (Unspecified)
system.caches.L1Cache_Controller.M.Fwd_GETX::total           74                       (Unspecified)
system.caches.L1Cache_Controller.M.Fwd_GETS |        2572     13.60%     13.60% |        2321     12.27%     25.86% |        2334     12.34%     38.20% |        2326     12.30%     50.50% |        2370     12.53%     63.02% |        2310     12.21%     75.24% |        2349     12.42%     87.65% |        2336     12.35%    100.00% (Unspecified)
system.caches.L1Cache_Controller.M.Fwd_GETS::total        18918                       (Unspecified)
system.caches.L1Cache_Controller.IS.Inv  |           0      0.00%      0.00% |           5     17.24%     17.24% |          11     37.93%     55.17% |           5     17.24%     72.41% |           2      6.90%     79.31% |           2      6.90%     86.21% |           2      6.90%     93.10% |           2      6.90%    100.00% (Unspecified)
system.caches.L1Cache_Controller.IS.Inv::total           29                       (Unspecified)
system.caches.L1Cache_Controller.IS.L1_Replacement |           1     50.00%     50.00% |           0      0.00%     50.00% |           0      0.00%     50.00% |           1     50.00%    100.00% |           0      0.00%    100.00% |           0      0.00%    100.00% |           0      0.00%    100.00% |           0      0.00%    100.00% (Unspecified)
system.caches.L1Cache_Controller.IS.L1_Replacement::total            2                       (Unspecified)
system.caches.L1Cache_Controller.IS.Data_Exclusive |      715910     12.61%     12.61% |      702948     12.38%     24.99% |      709855     12.50%     37.49% |      707599     12.46%     49.95% |      713632     12.57%     62.52% |      712951     12.56%     75.08% |      713243     12.56%     87.64% |      701871     12.36%    100.00% (Unspecified)
system.caches.L1Cache_Controller.IS.Data_Exclusive::total      5678009                       (Unspecified)
system.caches.L1Cache_Controller.IS.DataS_fromL1 |        2342     11.35%     11.35% |        2542     12.31%     23.66% |        2858     13.84%     37.50% |        2792     13.53%     51.03% |        2489     12.06%     63.09% |        2753     13.34%     76.42% |        2388     11.57%     87.99% |        2479     12.01%    100.00% (Unspecified)
system.caches.L1Cache_Controller.IS.DataS_fromL1::total        20643                       (Unspecified)
system.caches.L1Cache_Controller.IS.Data_all_Acks |     1299255     12.66%     12.66% |     1268049     12.36%     25.02% |     1281551     12.49%     37.51% |     1278320     12.46%     49.96% |     1288396     12.56%     62.52% |     1288873     12.56%     75.08% |     1288876     12.56%     87.64% |     1268376     12.36%    100.00% (Unspecified)
system.caches.L1Cache_Controller.IS.Data_all_Acks::total     10261696                       (Unspecified)
system.caches.L1Cache_Controller.IM.Data |          70     84.34%     84.34% |           1      1.20%     85.54% |           2      2.41%     87.95% |           3      3.61%     91.57% |           1      1.20%     92.77% |           4      4.82%     97.59% |           2      2.41%    100.00% |           0      0.00%    100.00% (Unspecified)
system.caches.L1Cache_Controller.IM.Data::total           83                       (Unspecified)
system.caches.L1Cache_Controller.IM.Data_all_Acks |        3018     13.94%     13.94% |        2637     12.18%     26.12% |        2679     12.38%     38.50% |        2670     12.33%     50.84% |        2670     12.33%     63.17% |        2666     12.32%     75.49% |        2672     12.34%     87.83% |        2634     12.17%    100.00% (Unspecified)
system.caches.L1Cache_Controller.IM.Data_all_Acks::total        21646                       (Unspecified)
system.caches.L1Cache_Controller.SM.Ack  |       17141     12.97%     12.97% |       16430     12.43%     25.40% |       16448     12.44%     37.84% |       16426     12.43%     50.27% |       16451     12.45%     62.71% |       16434     12.43%     75.14% |       16421     12.42%     87.57% |       16434     12.43%    100.00% (Unspecified)
system.caches.L1Cache_Controller.SM.Ack::total       132185                       (Unspecified)
system.caches.L1Cache_Controller.SM.Ack_all |        2565     13.43%     13.43% |        2351     12.31%     25.73% |        2364     12.37%     38.11% |        2363     12.37%     50.47% |        2374     12.43%     62.90% |        2363     12.37%     75.27% |        2360     12.35%     87.62% |        2365     12.38%    100.00% (Unspecified)
system.caches.L1Cache_Controller.SM.Ack_all::total        19105                       (Unspecified)
system.caches.L1Cache_Controller.IS_I.Data_all_Acks |           0      0.00%      0.00% |           5     17.24%     17.24% |          11     37.93%     55.17% |           5     17.24%     72.41% |           2      6.90%     79.31% |           2      6.90%     86.21% |           2      6.90%     93.10% |           2      6.90%    100.00% (Unspecified)
system.caches.L1Cache_Controller.IS_I.Data_all_Acks::total           29                       (Unspecified)
system.caches.L1Cache_Controller.M_I.WB_Ack |      730942     12.84%     12.84% |      702742     12.35%     25.19% |      709941     12.47%     37.66% |      707639     12.43%     50.09% |      713742     12.54%     62.63% |      713030     12.53%     75.16% |      713250     12.53%     87.69% |      700580     12.31%    100.00% (Unspecified)
system.caches.L1Cache_Controller.M_I.WB_Ack::total      5691866                       (Unspecified)
system.caches.Directory_Controller.Fetch |        5103      0.09%      0.09% |     5687053     99.91%    100.00% (Unspecified)
system.caches.Directory_Controller.Fetch::total      5692156                       (Unspecified)
system.caches.Directory_Controller.Data  |         101      0.07%      0.07% |      144159     99.93%    100.00% (Unspecified)
system.caches.Directory_Controller.Data::total       144260                       (Unspecified)
system.caches.Directory_Controller.Memory_Data |        5103      0.09%      0.09% |     5687032     99.91%    100.00% (Unspecified)
system.caches.Directory_Controller.Memory_Data::total      5692135                       (Unspecified)
system.caches.Directory_Controller.Memory_Ack |         101      0.07%      0.07% |      144159     99.93%    100.00% (Unspecified)
system.caches.Directory_Controller.Memory_Ack::total       144260                       (Unspecified)
system.caches.Directory_Controller.CleanReplacement |        5057      0.09%      0.09% |     5411767     99.91%    100.00% (Unspecified)
system.caches.Directory_Controller.CleanReplacement::total      5416824                       (Unspecified)
system.caches.Directory_Controller.I.Fetch |        5103      0.09%      0.09% |     5687053     99.91%    100.00% (Unspecified)
system.caches.Directory_Controller.I.Fetch::total      5692156                       (Unspecified)
system.caches.Directory_Controller.M.Data |         101      0.07%      0.07% |      144159     99.93%    100.00% (Unspecified)
system.caches.Directory_Controller.M.Data::total       144260                       (Unspecified)
system.caches.Directory_Controller.M.CleanReplacement |        5057      0.09%      0.09% |     5411767     99.91%    100.00% (Unspecified)
system.caches.Directory_Controller.M.CleanReplacement::total      5416824                       (Unspecified)
system.caches.Directory_Controller.IM.Memory_Data |        5103      0.09%      0.09% |     5687032     99.91%    100.00% (Unspecified)
system.caches.Directory_Controller.IM.Memory_Data::total      5692135                       (Unspecified)
system.caches.Directory_Controller.MI.Memory_Ack |         101      0.07%      0.07% |      144159     99.93%    100.00% (Unspecified)
system.caches.Directory_Controller.MI.Memory_Ack::total       144260                       (Unspecified)
system.caches.L2Cache_Controller.L1_GET_INSTR |        3804     12.77%     12.77% |        4347     14.60%     27.37% |        3598     12.08%     39.45% |        2853      9.58%     49.03% |        3675     12.34%     61.37% |        3770     12.66%     74.03% |        3777     12.68%     86.71% |        3957     13.29%    100.00% (Unspecified)
system.caches.L2Cache_Controller.L1_GET_INSTR::total        29781                       (Unspecified)
system.caches.L2Cache_Controller.L1_GETS |     1994532     12.52%     12.52% |     1993970     12.52%     25.04% |     1991626     12.50%     37.54% |     1991642     12.50%     50.04% |     1991705     12.50%     62.54% |     1989986     12.49%     75.03% |     1988893     12.48%     87.52% |     1988996     12.48%    100.00% (Unspecified)
system.caches.L2Cache_Controller.L1_GETS::total     15931350                       (Unspecified)
system.caches.L2Cache_Controller.L1_GETX |        3011     13.84%     13.84% |        2674     12.29%     26.12% |        2109      9.69%     35.81% |        2527     11.61%     47.42% |        2671     12.27%     59.70% |        3129     14.38%     74.08% |        2718     12.49%     86.56% |        2924     13.44%    100.00% (Unspecified)
system.caches.L2Cache_Controller.L1_GETX::total        21763                       (Unspecified)
system.caches.L2Cache_Controller.L1_UPGRADE |        2360     12.38%     12.38% |        2376     12.47%     24.85% |        2352     12.34%     37.19% |        2352     12.34%     49.53% |        2378     12.48%     62.01% |        2363     12.40%     74.41% |        2516     13.20%     87.61% |        2362     12.39%    100.00% (Unspecified)
system.caches.L2Cache_Controller.L1_UPGRADE::total        19059                       (Unspecified)
system.caches.L2Cache_Controller.L1_PUTX |      711708     12.50%     12.50% |      711727     12.50%     25.01% |      710490     12.48%     37.49% |      711242     12.50%     49.99% |      711409     12.50%     62.49% |      712216     12.51%     75.00% |      711454     12.50%     87.50% |      711621     12.50%    100.00% (Unspecified)
system.caches.L2Cache_Controller.L1_PUTX::total      5691867                       (Unspecified)
system.caches.L2Cache_Controller.L2_Replacement |       18152     12.58%     12.58% |       18015     12.49%     25.07% |       17707     12.28%     37.35% |       17954     12.45%     49.79% |       17922     12.42%     62.22% |       18367     12.73%     74.95% |       17943     12.44%     87.39% |       18191     12.61%    100.00% (Unspecified)
system.caches.L2Cache_Controller.L2_Replacement::total       144251                       (Unspecified)
system.caches.L2Cache_Controller.L2_Replacement_clean |      677182     12.50%     12.50% |      677410     12.51%     25.01% |      677027     12.50%     37.51% |      676980     12.50%     50.00% |      677082     12.50%     62.50% |      677083     12.50%     75.00% |      677021     12.50%     87.50% |      677049     12.50%    100.00% (Unspecified)
system.caches.L2Cache_Controller.L2_Replacement_clean::total      5416834                       (Unspecified)
system.caches.L2Cache_Controller.Mem_Data |      711714     12.50%     12.50% |      711808     12.51%     25.01% |      711118     12.49%     37.50% |      711315     12.50%     50.00% |      711384     12.50%     62.50% |      711831     12.51%     75.00% |      711344     12.50%     87.50% |      711620     12.50%    100.00% (Unspecified)
system.caches.L2Cache_Controller.Mem_Data::total      5692134                       (Unspecified)
system.caches.L2Cache_Controller.Mem_Ack |      695334     12.50%     12.50% |      695425     12.51%     25.01% |      694734     12.49%     37.50% |      694933     12.50%     50.00% |      695004     12.50%     62.50% |      695450     12.51%     75.00% |      694964     12.50%     87.50% |      695240     12.50%    100.00% (Unspecified)
system.caches.L2Cache_Controller.Mem_Ack::total      5561084                       (Unspecified)
system.caches.L2Cache_Controller.WB_Data |        2386     12.60%     12.60% |        2356     12.44%     25.05% |        2330     12.31%     37.35% |        2336     12.34%     49.69% |        2367     12.50%     62.19% |        2329     12.30%     74.49% |        2488     13.14%     87.64% |        2341     12.36%    100.00% (Unspecified)
system.caches.L2Cache_Controller.WB_Data::total        18933                       (Unspecified)
system.caches.L2Cache_Controller.WB_Data_clean |         219     12.70%     12.70% |         218     12.64%     25.33% |         236     13.68%     39.01% |         216     12.52%     51.54% |         202     11.71%     63.25% |         194     11.25%     74.49% |         189     10.96%     85.45% |         251     14.55%    100.00% (Unspecified)
system.caches.L2Cache_Controller.WB_Data_clean::total         1725                       (Unspecified)
system.caches.L2Cache_Controller.Ack     |        3751     13.56%     13.56% |        3873     14.00%     27.56% |        3638     13.15%     40.71% |        2896     10.47%     51.17% |        3256     11.77%     62.94% |        3293     11.90%     74.84% |        3321     12.00%     86.85% |        3639     13.15%    100.00% (Unspecified)
system.caches.L2Cache_Controller.Ack::total        27667                       (Unspecified)
system.caches.L2Cache_Controller.Ack_all |         977     13.25%     13.25% |        1028     13.95%     27.20% |         953     12.93%     40.13% |         845     11.46%     51.59% |         917     12.44%     64.03% |         835     11.33%     75.36% |         840     11.40%     86.76% |         976     13.24%    100.00% (Unspecified)
system.caches.L2Cache_Controller.Ack_all::total         7371                       (Unspecified)
system.caches.L2Cache_Controller.Unblock |        2602     12.60%     12.60% |        2573     12.46%     25.07% |        2564     12.42%     37.49% |        2551     12.36%     49.85% |        2566     12.43%     62.28% |        2521     12.21%     74.49% |        2675     12.96%     87.45% |        2591     12.55%    100.00% (Unspecified)
system.caches.L2Cache_Controller.Unblock::total        20643                       (Unspecified)
system.caches.L2Cache_Controller.Exclusive_Unblock |      715154     12.51%     12.51% |      715071     12.50%     25.01% |      713777     12.48%     37.49% |      714603     12.50%     49.99% |      714715     12.50%     62.48% |      715551     12.51%     75.00% |      714855     12.50%     87.50% |      715034     12.50%    100.00% (Unspecified)
system.caches.L2Cache_Controller.Exclusive_Unblock::total      5718760                       (Unspecified)
system.caches.L2Cache_Controller.NP.L1_GET_INSTR |         657     12.92%     12.92% |         689     13.55%     26.47% |         641     12.61%     39.08% |         544     10.70%     49.77% |         656     12.90%     62.67% |         623     12.25%     74.93% |         619     12.17%     87.10% |         656     12.90%    100.00% (Unspecified)
system.caches.L2Cache_Controller.NP.L1_GET_INSTR::total         5085                       (Unspecified)
system.caches.L2Cache_Controller.NP.L1_GETS |      708739     12.50%     12.50% |      708876     12.50%     25.00% |      708552     12.50%     37.50% |      708651     12.50%     50.00% |      708539     12.50%     62.50% |      708809     12.50%     75.00% |      708604     12.50%     87.50% |      708698     12.50%    100.00% (Unspecified)
system.caches.L2Cache_Controller.NP.L1_GETS::total      5669468                       (Unspecified)
system.caches.L2Cache_Controller.NP.L1_GETX |        2322     13.19%     13.19% |        2244     12.75%     25.94% |        1925     10.94%     36.87% |        2123     12.06%     48.93% |        2193     12.46%     61.39% |        2402     13.64%     75.03% |        2125     12.07%     87.11% |        2270     12.89%    100.00% (Unspecified)
system.caches.L2Cache_Controller.NP.L1_GETX::total        17604                       (Unspecified)
system.caches.L2Cache_Controller.SS.L1_GET_INSTR |        2070     12.39%     12.39% |        2577     15.43%     27.82% |        2072     12.40%     40.22% |        1469      8.79%     49.02% |        2039     12.21%     61.22% |        2033     12.17%     73.39% |        2081     12.46%     85.85% |        2364     14.15%    100.00% (Unspecified)
system.caches.L2Cache_Controller.SS.L1_GET_INSTR::total        16705                       (Unspecified)
system.caches.L2Cache_Controller.SS.L1_GETS |     1281708     12.53%     12.53% |     1281066     12.52%     25.05% |     1279482     12.51%     37.56% |     1279182     12.50%     50.06% |     1279408     12.51%     62.56% |     1277275     12.48%     75.05% |     1276237     12.47%     87.52% |     1276479     12.48%    100.00% (Unspecified)
system.caches.L2Cache_Controller.SS.L1_GETS::total     10230837                       (Unspecified)
system.caches.L2Cache_Controller.SS.L1_GETX |          48     57.83%     57.83% |           1      1.20%     59.04% |           0      0.00%     59.04% |           0      0.00%     59.04% |           7      8.43%     67.47% |           0      0.00%     67.47% |          23     27.71%     95.18% |           4      4.82%    100.00% (Unspecified)
system.caches.L2Cache_Controller.SS.L1_GETX::total           83                       (Unspecified)
system.caches.L2Cache_Controller.SS.L1_UPGRADE |        2360     12.41%     12.41% |        2376     12.49%     24.90% |        2352     12.36%     37.26% |        2352     12.36%     49.63% |        2378     12.50%     62.13% |        2363     12.42%     74.55% |        2479     13.03%     87.58% |        2362     12.42%    100.00% (Unspecified)
system.caches.L2Cache_Controller.SS.L1_UPGRADE::total        19022                       (Unspecified)
system.caches.L2Cache_Controller.SS.L2_Replacement |          13     25.49%     25.49% |          10     19.61%     45.10% |           1      1.96%     47.06% |           5      9.80%     56.86% |           4      7.84%     64.71% |           1      1.96%     66.67% |          14     27.45%     94.12% |           3      5.88%    100.00% (Unspecified)
system.caches.L2Cache_Controller.SS.L2_Replacement::total           51                       (Unspecified)
system.caches.L2Cache_Controller.SS.L2_Replacement_clean |         758     13.03%     13.03% |         808     13.89%     26.93% |         778     13.38%     40.30% |         652     11.21%     51.51% |         718     12.35%     63.86% |         664     11.42%     75.28% |         660     11.35%     86.62% |         778     13.38%    100.00% (Unspecified)
system.caches.L2Cache_Controller.SS.L2_Replacement_clean::total         5816                       (Unspecified)
system.caches.L2Cache_Controller.M.L1_GET_INSTR |           0      0.00%      0.00% |           2     25.00%     25.00% |           1     12.50%     37.50% |           0      0.00%     37.50% |           0      0.00%     37.50% |           1     12.50%     50.00% |           2     25.00%     75.00% |           2     25.00%    100.00% (Unspecified)
system.caches.L2Cache_Controller.M.L1_GET_INSTR::total            8                       (Unspecified)
system.caches.L2Cache_Controller.M.L1_GETS |        1130     12.81%     12.81% |        1200     13.61%     26.42% |         818      9.28%     35.70% |        1110     12.59%     48.29% |        1141     12.94%     61.23% |        1271     14.41%     75.64% |        1070     12.13%     87.78% |        1078     12.22%    100.00% (Unspecified)
system.caches.L2Cache_Controller.M.L1_GETS::total         8818                       (Unspecified)
system.caches.L2Cache_Controller.M.L1_GETX |         571     14.42%     14.42% |         417     10.53%     24.95% |         182      4.60%     29.55% |         403     10.18%     39.72% |         466     11.77%     51.49% |         714     18.03%     69.52% |         563     14.22%     83.74% |         644     16.26%    100.00% (Unspecified)
system.caches.L2Cache_Controller.M.L1_GETX::total         3960                       (Unspecified)
system.caches.L2Cache_Controller.M.L2_Replacement |       18135     12.58%     12.58% |       18005     12.49%     25.06% |       17705     12.28%     37.34% |       17948     12.45%     49.79% |       17916     12.43%     62.22% |       18366     12.74%     74.95% |       17928     12.43%     87.39% |       18187     12.61%    100.00% (Unspecified)
system.caches.L2Cache_Controller.M.L2_Replacement::total       144190                       (Unspecified)
system.caches.L2Cache_Controller.M.L2_Replacement_clean |      676219     12.50%     12.50% |      676391     12.50%     25.00% |      676074     12.50%     37.50% |      676140     12.50%     50.00% |      676168     12.50%     62.50% |      676247     12.50%     75.00% |      676194     12.50%     87.50% |      676076     12.50%    100.00% (Unspecified)
system.caches.L2Cache_Controller.M.L2_Replacement_clean::total      5409509                       (Unspecified)
system.caches.L2Cache_Controller.MT.L1_GETS |        2602     12.60%     12.60% |        2573     12.46%     25.07% |        2564     12.42%     37.49% |        2551     12.36%     49.85% |        2566     12.43%     62.28% |        2521     12.21%     74.49% |        2675     12.96%     87.45% |        2591     12.55%    100.00% (Unspecified)
system.caches.L2Cache_Controller.MT.L1_GETS::total        20643                       (Unspecified)
system.caches.L2Cache_Controller.MT.L1_GETX |          40     48.78%     48.78% |          11     13.41%     62.20% |           2      2.44%     64.63% |           1      1.22%     65.85% |           5      6.10%     71.95% |          11     13.41%     85.37% |           6      7.32%     92.68% |           6      7.32%    100.00% (Unspecified)
system.caches.L2Cache_Controller.MT.L1_GETX::total           82                       (Unspecified)
system.caches.L2Cache_Controller.MT.L1_PUTX |      711708     12.50%     12.50% |      711727     12.50%     25.01% |      710490     12.48%     37.49% |      711242     12.50%     49.99% |      711409     12.50%     62.49% |      712216     12.51%     75.00% |      711454     12.50%     87.50% |      711621     12.50%    100.00% (Unspecified)
system.caches.L2Cache_Controller.MT.L1_PUTX::total      5691867                       (Unspecified)
system.caches.L2Cache_Controller.MT.L2_Replacement |           4     40.00%     40.00% |           0      0.00%     40.00% |           1     10.00%     50.00% |           1     10.00%     60.00% |           2     20.00%     80.00% |           0      0.00%     80.00% |           1     10.00%     90.00% |           1     10.00%    100.00% (Unspecified)
system.caches.L2Cache_Controller.MT.L2_Replacement::total           10                       (Unspecified)
system.caches.L2Cache_Controller.MT.L2_Replacement_clean |         205     13.59%     13.59% |         211     13.98%     27.57% |         175     11.60%     39.17% |         188     12.46%     51.62% |         196     12.99%     64.61% |         172     11.40%     76.01% |         167     11.07%     87.08% |         195     12.92%    100.00% (Unspecified)
system.caches.L2Cache_Controller.MT.L2_Replacement_clean::total         1509                       (Unspecified)
system.caches.L2Cache_Controller.M_I.L1_GETS |           1     10.00%     10.00% |           2     20.00%     30.00% |           5     50.00%     80.00% |           1     10.00%     90.00% |           1     10.00%    100.00% |           0      0.00%    100.00% |           0      0.00%    100.00% |           0      0.00%    100.00% (Unspecified)
system.caches.L2Cache_Controller.M_I.L1_GETS::total           10                       (Unspecified)
system.caches.L2Cache_Controller.M_I.L1_GETX |           2     40.00%     40.00% |           1     20.00%     60.00% |           0      0.00%     60.00% |           0      0.00%     60.00% |           0      0.00%     60.00% |           2     40.00%    100.00% |           0      0.00%    100.00% |           0      0.00%    100.00% (Unspecified)
system.caches.L2Cache_Controller.M_I.L1_GETX::total            5                       (Unspecified)
system.caches.L2Cache_Controller.M_I.Mem_Ack |      695334     12.50%     12.50% |      695425     12.51%     25.01% |      694734     12.49%     37.50% |      694933     12.50%     50.00% |      695004     12.50%     62.50% |      695450     12.51%     75.00% |      694964     12.50%     87.50% |      695240     12.50%    100.00% (Unspecified)
system.caches.L2Cache_Controller.M_I.Mem_Ack::total      5561084                       (Unspecified)
system.caches.L2Cache_Controller.MT_I.WB_Data |           3     50.00%     50.00% |           0      0.00%     50.00% |           0      0.00%     50.00% |           1     16.67%     66.67% |           1     16.67%     83.33% |           0      0.00%     83.33% |           1     16.67%    100.00% |           0      0.00%    100.00% (Unspecified)
system.caches.L2Cache_Controller.MT_I.WB_Data::total            6                       (Unspecified)
system.caches.L2Cache_Controller.MT_I.Ack_all |           1     25.00%     25.00% |           0      0.00%     25.00% |           1     25.00%     50.00% |           0      0.00%     50.00% |           1     25.00%     75.00% |           0      0.00%     75.00% |           0      0.00%     75.00% |           1     25.00%    100.00% (Unspecified)
system.caches.L2Cache_Controller.MT_I.Ack_all::total            4                       (Unspecified)
system.caches.L2Cache_Controller.MCT_I.WB_Data |           0      0.00%      0.00% |           1     11.11%     11.11% |           2     22.22%     33.33% |           0      0.00%     33.33% |           2     22.22%     55.56% |           2     22.22%     77.78% |           1     11.11%     88.89% |           1     11.11%    100.00% (Unspecified)
system.caches.L2Cache_Controller.MCT_I.WB_Data::total            9                       (Unspecified)
system.caches.L2Cache_Controller.MCT_I.Ack_all |         205     13.67%     13.67% |         210     14.00%     27.67% |         173     11.53%     39.20% |         188     12.53%     51.73% |         194     12.93%     64.67% |         170     11.33%     76.00% |         166     11.07%     87.07% |         194     12.93%    100.00% (Unspecified)
system.caches.L2Cache_Controller.MCT_I.Ack_all::total         1500                       (Unspecified)
system.caches.L2Cache_Controller.I_I.Ack |        3677     13.40%     13.40% |        3814     13.90%     27.30% |        3637     13.25%     40.55% |        2890     10.53%     51.08% |        3252     11.85%     62.94% |        3292     12.00%     74.93% |        3253     11.85%     86.79% |        3626     13.21%    100.00% (Unspecified)
system.caches.L2Cache_Controller.I_I.Ack::total        27441                       (Unspecified)
system.caches.L2Cache_Controller.I_I.Ack_all |         758     13.03%     13.03% |         808     13.89%     26.93% |         778     13.38%     40.30% |         652     11.21%     51.51% |         718     12.35%     63.86% |         664     11.42%     75.28% |         660     11.35%     86.62% |         778     13.38%    100.00% (Unspecified)
system.caches.L2Cache_Controller.I_I.Ack_all::total         5816                       (Unspecified)
system.caches.L2Cache_Controller.S_I.Ack |          74     32.74%     32.74% |          59     26.11%     58.85% |           1      0.44%     59.29% |           6      2.65%     61.95% |           4      1.77%     63.72% |           1      0.44%     64.16% |          68     30.09%     94.25% |          13      5.75%    100.00% (Unspecified)
system.caches.L2Cache_Controller.S_I.Ack::total          226                       (Unspecified)
system.caches.L2Cache_Controller.S_I.Ack_all |          13     25.49%     25.49% |          10     19.61%     45.10% |           1      1.96%     47.06% |           5      9.80%     56.86% |           4      7.84%     64.71% |           1      1.96%     66.67% |          14     27.45%     94.12% |           3      5.88%    100.00% (Unspecified)
system.caches.L2Cache_Controller.S_I.Ack_all::total           51                       (Unspecified)
system.caches.L2Cache_Controller.ISS.L1_GETS |          52     20.47%     20.47% |          53     20.87%     41.34% |          54     21.26%     62.60% |          34     13.39%     75.98% |          10      3.94%     79.92% |          16      6.30%     86.22% |          11      4.33%     90.55% |          24      9.45%    100.00% (Unspecified)
system.caches.L2Cache_Controller.ISS.L1_GETS::total          254                       (Unspecified)
system.caches.L2Cache_Controller.ISS.L1_GETX |           0      0.00%      0.00% |           0      0.00%      0.00% |           0      0.00%      0.00% |           0      0.00%      0.00% |           0      0.00%      0.00% |           0      0.00%      0.00% |           1    100.00%    100.00% |           0      0.00%    100.00% (Unspecified)
system.caches.L2Cache_Controller.ISS.L1_GETX::total            1                       (Unspecified)
system.caches.L2Cache_Controller.ISS.Mem_Data |      708683     12.50%     12.50% |      708822     12.50%     25.00% |      708498     12.50%     37.50% |      708614     12.50%     50.00% |      708525     12.50%     62.50% |      708790     12.50%     75.00% |      708589     12.50%     87.50% |      708670     12.50%    100.00% (Unspecified)
system.caches.L2Cache_Controller.ISS.Mem_Data::total      5669191                       (Unspecified)
system.caches.L2Cache_Controller.IS.L1_GET_INSTR |        1077     13.49%     13.49% |        1079     13.52%     27.01% |         884     11.07%     38.08% |         840     10.52%     48.60% |         980     12.28%     60.88% |        1113     13.94%     74.82% |        1075     13.47%     88.29% |         935     11.71%    100.00% (Unspecified)
system.caches.L2Cache_Controller.IS.L1_GET_INSTR::total         7983                       (Unspecified)
system.caches.L2Cache_Controller.IS.L1_GETS |         202     33.67%     33.67% |         138     23.00%     56.67% |          84     14.00%     70.67% |          62     10.33%     81.00% |           6      1.00%     82.00% |          72     12.00%     94.00% |          14      2.33%     96.33% |          22      3.67%    100.00% (Unspecified)
system.caches.L2Cache_Controller.IS.L1_GETS::total          600                       (Unspecified)
system.caches.L2Cache_Controller.IS.Mem_Data |         709     13.28%     13.28% |         742     13.90%     27.18% |         695     13.02%     40.19% |         578     10.83%     51.02% |         666     12.47%     63.50% |         639     11.97%     75.46% |         630     11.80%     87.26% |         680     12.74%    100.00% (Unspecified)
system.caches.L2Cache_Controller.IS.Mem_Data::total         5339                       (Unspecified)
system.caches.L2Cache_Controller.IM.Mem_Data |        2322     13.19%     13.19% |        2244     12.75%     25.94% |        1925     10.94%     36.87% |        2123     12.06%     48.93% |        2193     12.46%     61.39% |        2402     13.64%     75.03% |        2125     12.07%     87.11% |        2270     12.89%    100.00% (Unspecified)
system.caches.L2Cache_Controller.IM.Mem_Data::total        17604                       (Unspecified)
system.caches.L2Cache_Controller.SS_MB.L1_GETS |           0      0.00%      0.00% |           0      0.00%      0.00% |           0      0.00%      0.00% |           0      0.00%      0.00% |           0      0.00%      0.00% |           0      0.00%      0.00% |         180     85.71%     85.71% |          30     14.29%    100.00% (Unspecified)
system.caches.L2Cache_Controller.SS_MB.L1_GETS::total          210                       (Unspecified)
system.caches.L2Cache_Controller.SS_MB.Exclusive_Unblock |        2408     12.60%     12.60% |        2377     12.44%     25.05% |        2352     12.31%     37.36% |        2352     12.31%     49.67% |        2385     12.48%     62.15% |        2363     12.37%     74.52% |        2502     13.10%     87.62% |        2366     12.38%    100.00% (Unspecified)
system.caches.L2Cache_Controller.SS_MB.Exclusive_Unblock::total        19105                       (Unspecified)
system.caches.L2Cache_Controller.MT_MB.L1_GETS |          35     25.36%     25.36% |          19     13.77%     39.13% |          27     19.57%     58.70% |          25     18.12%     76.81% |           9      6.52%     83.33% |           7      5.07%     88.41% |           0      0.00%     88.41% |          16     11.59%    100.00% (Unspecified)
system.caches.L2Cache_Controller.MT_MB.L1_GETS::total          138                       (Unspecified)
system.caches.L2Cache_Controller.MT_MB.L1_GETX |          28    100.00%    100.00% |           0      0.00%    100.00% |           0      0.00%    100.00% |           0      0.00%    100.00% |           0      0.00%    100.00% |           0      0.00%    100.00% |           0      0.00%    100.00% |           0      0.00%    100.00% (Unspecified)
system.caches.L2Cache_Controller.MT_MB.L1_GETX::total           28                       (Unspecified)
system.caches.L2Cache_Controller.MT_MB.Exclusive_Unblock |      712746     12.51%     12.51% |      712694     12.50%     25.01% |      711425     12.48%     37.49% |      712251     12.50%     49.99% |      712330     12.50%     62.49% |      713188     12.51%     75.00% |      712353     12.50%     87.50% |      712668     12.50%    100.00% (Unspecified)
system.caches.L2Cache_Controller.MT_MB.Exclusive_Unblock::total      5699655                       (Unspecified)
system.caches.L2Cache_Controller.MT_IIB.L1_GETS |          48     15.29%     15.29% |          29      9.24%     24.52% |          30      9.55%     34.08% |          22      7.01%     41.08% |          22      7.01%     48.09% |          14      4.46%     52.55% |         100     31.85%     84.39% |          49     15.61%    100.00% (Unspecified)
system.caches.L2Cache_Controller.MT_IIB.L1_GETS::total          314                       (Unspecified)
system.caches.L2Cache_Controller.MT_IIB.WB_Data |        2380     12.61%     12.61% |        2348     12.44%     25.04% |        2320     12.29%     37.33% |        2334     12.36%     49.69% |        2360     12.50%     62.19% |        2323     12.30%     74.49% |        2479     13.13%     87.62% |        2337     12.38%    100.00% (Unspecified)
system.caches.L2Cache_Controller.MT_IIB.WB_Data::total        18881                       (Unspecified)
system.caches.L2Cache_Controller.MT_IIB.WB_Data_clean |         219     12.70%     12.70% |         218     12.64%     25.33% |         236     13.68%     39.01% |         216     12.52%     51.54% |         202     11.71%     63.25% |         194     11.25%     74.49% |         189     10.96%     85.45% |         251     14.55%    100.00% (Unspecified)
system.caches.L2Cache_Controller.MT_IIB.WB_Data_clean::total         1725                       (Unspecified)
system.caches.L2Cache_Controller.MT_IIB.Unblock |           3      8.11%      8.11% |           7     18.92%     27.03% |           8     21.62%     48.65% |           1      2.70%     51.35% |           4     10.81%     62.16% |           4     10.81%     72.97% |           7     18.92%     91.89% |           3      8.11%    100.00% (Unspecified)
system.caches.L2Cache_Controller.MT_IIB.Unblock::total           37                       (Unspecified)
system.caches.L2Cache_Controller.MT_IB.WB_Data |           3      8.11%      8.11% |           7     18.92%     27.03% |           8     21.62%     48.65% |           1      2.70%     51.35% |           4     10.81%     62.16% |           4     10.81%     72.97% |           7     18.92%     91.89% |           3      8.11%    100.00% (Unspecified)
system.caches.L2Cache_Controller.MT_IB.WB_Data::total           37                       (Unspecified)
system.caches.L2Cache_Controller.MT_SB.L1_GETS |          15     25.86%     25.86% |          14     24.14%     50.00% |          10     17.24%     67.24% |           4      6.90%     74.14% |           3      5.17%     79.31% |           1      1.72%     81.03% |           2      3.45%     84.48% |           9     15.52%    100.00% (Unspecified)
system.caches.L2Cache_Controller.MT_SB.L1_GETS::total           58                       (Unspecified)
system.caches.L2Cache_Controller.MT_SB.L1_UPGRADE |           0      0.00%      0.00% |           0      0.00%      0.00% |           0      0.00%      0.00% |           0      0.00%      0.00% |           0      0.00%      0.00% |           0      0.00%      0.00% |          37    100.00%    100.00% |           0      0.00%    100.00% (Unspecified)
system.caches.L2Cache_Controller.MT_SB.L1_UPGRADE::total           37                       (Unspecified)
system.caches.L2Cache_Controller.MT_SB.Unblock |        2599     12.61%     12.61% |        2566     12.45%     25.07% |        2556     12.40%     37.47% |        2550     12.38%     49.84% |        2562     12.43%     62.28% |        2517     12.21%     74.49% |        2668     12.95%     87.44% |        2588     12.56%    100.00% (Unspecified)
system.caches.L2Cache_Controller.MT_SB.Unblock::total        20606                       (Unspecified)
system.caches.RequestType.LD.latency_hist_seqr::bucket_size          512                       (Unspecified)
system.caches.RequestType.LD.latency_hist_seqr::max_bucket         5119                       (Unspecified)
system.caches.RequestType.LD.latency_hist_seqr::samples     48768081                       (Unspecified)
system.caches.RequestType.LD.latency_hist_seqr::mean    65.111554                       (Unspecified)
system.caches.RequestType.LD.latency_hist_seqr::gmean     3.947843                       (Unspecified)
system.caches.RequestType.LD.latency_hist_seqr::stdev   188.640746                       (Unspecified)
system.caches.RequestType.LD.latency_hist_seqr |    47036953     96.45%     96.45% |     1591287      3.26%     99.71% |       58828      0.12%     99.83% |        7743      0.02%     99.85% |       58143      0.12%     99.97% |       14150      0.03%    100.00% |         879      0.00%    100.00% |          89      0.00%    100.00% |           9      0.00%    100.00% |           0      0.00%    100.00% (Unspecified)
system.caches.RequestType.LD.latency_hist_seqr::total     48768081                       (Unspecified)
system.caches.RequestType.LD.hit_latency_hist_seqr::bucket_size            1                       (Unspecified)
system.caches.RequestType.LD.hit_latency_hist_seqr::max_bucket            9                       (Unspecified)
system.caches.RequestType.LD.hit_latency_hist_seqr::samples     32837485                       (Unspecified)
system.caches.RequestType.LD.hit_latency_hist_seqr::mean     1.119837                       (Unspecified)
system.caches.RequestType.LD.hit_latency_hist_seqr::gmean     1.085441                       (Unspecified)
system.caches.RequestType.LD.hit_latency_hist_seqr::stdev     0.336121                       (Unspecified)
system.caches.RequestType.LD.hit_latency_hist_seqr |           0      0.00%      0.00% |    29025388     88.39%     88.39% |     3689140     11.23%     99.63% |      122856      0.37%    100.00% |         101      0.00%    100.00% |           0      0.00%    100.00% |           0      0.00%    100.00% |           0      0.00%    100.00% |           0      0.00%    100.00% |           0      0.00%    100.00% (Unspecified)
system.caches.RequestType.LD.hit_latency_hist_seqr::total     32837485                       (Unspecified)
system.caches.RequestType.LD.miss_latency_hist_seqr::bucket_size          512                       (Unspecified)
system.caches.RequestType.LD.miss_latency_hist_seqr::max_bucket         5119                       (Unspecified)
system.caches.RequestType.LD.miss_latency_hist_seqr::samples     15930596                       (Unspecified)
system.caches.RequestType.LD.miss_latency_hist_seqr::mean   197.016666                       (Unspecified)
system.caches.RequestType.LD.miss_latency_hist_seqr::gmean    56.523952                       (Unspecified)
system.caches.RequestType.LD.miss_latency_hist_seqr::stdev   288.265133                       (Unspecified)
system.caches.RequestType.LD.miss_latency_hist_seqr |    14199468     89.13%     89.13% |     1591287      9.99%     99.12% |       58828      0.37%     99.49% |        7743      0.05%     99.54% |       58143      0.36%     99.91% |       14150      0.09%     99.99% |         879      0.01%    100.00% |          89      0.00%    100.00% |           9      0.00%    100.00% |           0      0.00%    100.00% (Unspecified)
system.caches.RequestType.LD.miss_latency_hist_seqr::total     15930596                       (Unspecified)
system.caches.RequestType.ST.latency_hist_seqr::bucket_size          512                       (Unspecified)
system.caches.RequestType.ST.latency_hist_seqr::max_bucket         5119                       (Unspecified)
system.caches.RequestType.ST.latency_hist_seqr::samples       663462                       (Unspecified)
system.caches.RequestType.ST.latency_hist_seqr::mean    14.123487                       (Unspecified)
system.caches.RequestType.ST.latency_hist_seqr::gmean     1.282935                       (Unspecified)
system.caches.RequestType.ST.latency_hist_seqr::stdev    88.656512                       (Unspecified)
system.caches.RequestType.ST.latency_hist_seqr |      658569     99.26%     99.26% |        4515      0.68%     99.94% |         168      0.03%     99.97% |          23      0.00%     99.97% |         146      0.02%     99.99% |          38      0.01%    100.00% |           3      0.00%    100.00% |           0      0.00%    100.00% |           0      0.00%    100.00% |           0      0.00%    100.00% (Unspecified)
system.caches.RequestType.ST.latency_hist_seqr::total       663462                       (Unspecified)
system.caches.RequestType.ST.hit_latency_hist_seqr::bucket_size          256                       (Unspecified)
system.caches.RequestType.ST.hit_latency_hist_seqr::max_bucket         2559                       (Unspecified)
system.caches.RequestType.ST.hit_latency_hist_seqr::samples       625847                       (Unspecified)
system.caches.RequestType.ST.hit_latency_hist_seqr::mean     1.031709                       (Unspecified)
system.caches.RequestType.ST.hit_latency_hist_seqr::gmean     1.001304                       (Unspecified)
system.caches.RequestType.ST.hit_latency_hist_seqr::stdev     4.720916                       (Unspecified)
system.caches.RequestType.ST.hit_latency_hist_seqr |      625822    100.00%    100.00% |          11      0.00%    100.00% |           3      0.00%    100.00% |           8      0.00%    100.00% |           2      0.00%    100.00% |           1      0.00%    100.00% |           0      0.00%    100.00% |           0      0.00%    100.00% |           0      0.00%    100.00% |           0      0.00%    100.00% (Unspecified)
system.caches.RequestType.ST.hit_latency_hist_seqr::total       625847                       (Unspecified)
system.caches.RequestType.ST.miss_latency_hist_seqr::bucket_size          512                       (Unspecified)
system.caches.RequestType.ST.miss_latency_hist_seqr::max_bucket         5119                       (Unspecified)
system.caches.RequestType.ST.miss_latency_hist_seqr::samples        37615                       (Unspecified)
system.caches.RequestType.ST.miss_latency_hist_seqr::mean   231.947494                       (Unspecified)
system.caches.RequestType.ST.miss_latency_hist_seqr::gmean    79.272137                       (Unspecified)
system.caches.RequestType.ST.miss_latency_hist_seqr::stdev   296.594661                       (Unspecified)
system.caches.RequestType.ST.miss_latency_hist_seqr |       32736     87.03%     87.03% |        4504     11.97%     99.00% |         165      0.44%     99.44% |          23      0.06%     99.50% |         146      0.39%     99.89% |          38      0.10%     99.99% |           3      0.01%    100.00% |           0      0.00%    100.00% |           0      0.00%    100.00% |           0      0.00%    100.00% (Unspecified)
system.caches.RequestType.ST.miss_latency_hist_seqr::total        37615                       (Unspecified)
system.caches.RequestType.IFETCH.latency_hist_seqr::bucket_size          512                       (Unspecified)
system.caches.RequestType.IFETCH.latency_hist_seqr::max_bucket         5119                       (Unspecified)
system.caches.RequestType.IFETCH.latency_hist_seqr::samples       790712                       (Unspecified)
system.caches.RequestType.IFETCH.latency_hist_seqr::mean     5.768277                       (Unspecified)
system.caches.RequestType.IFETCH.latency_hist_seqr::gmean     1.157864                       (Unspecified)
system.caches.RequestType.IFETCH.latency_hist_seqr::stdev    38.864829                       (Unspecified)
system.caches.RequestType.IFETCH.latency_hist_seqr |      790474     99.97%     99.97% |         151      0.02%     99.99% |          40      0.01%     99.99% |          41      0.01%    100.00% |           5      0.00%    100.00% |           1      0.00%    100.00% |           0      0.00%    100.00% |           0      0.00%    100.00% |           0      0.00%    100.00% |           0      0.00%    100.00% (Unspecified)
system.caches.RequestType.IFETCH.latency_hist_seqr::total       790712                       (Unspecified)
system.caches.RequestType.IFETCH.hit_latency_hist_seqr::bucket_size            1                       (Unspecified)
system.caches.RequestType.IFETCH.hit_latency_hist_seqr::max_bucket            9                       (Unspecified)
system.caches.RequestType.IFETCH.hit_latency_hist_seqr::samples       760931                       (Unspecified)
system.caches.RequestType.IFETCH.hit_latency_hist_seqr::mean     1.000226                       (Unspecified)
system.caches.RequestType.IFETCH.hit_latency_hist_seqr::gmean     1.000157                       (Unspecified)
system.caches.RequestType.IFETCH.hit_latency_hist_seqr::stdev     0.015033                       (Unspecified)
system.caches.RequestType.IFETCH.hit_latency_hist_seqr |           0      0.00%      0.00% |      760759     99.98%     99.98% |         172      0.02%    100.00% |           0      0.00%    100.00% |           0      0.00%    100.00% |           0      0.00%    100.00% |           0      0.00%    100.00% |           0      0.00%    100.00% |           0      0.00%    100.00% |           0      0.00%    100.00% (Unspecified)
system.caches.RequestType.IFETCH.hit_latency_hist_seqr::total       760931                       (Unspecified)
system.caches.RequestType.IFETCH.miss_latency_hist_seqr::bucket_size          512                       (Unspecified)
system.caches.RequestType.IFETCH.miss_latency_hist_seqr::max_bucket         5119                       (Unspecified)
system.caches.RequestType.IFETCH.miss_latency_hist_seqr::samples        29781                       (Unspecified)
system.caches.RequestType.IFETCH.miss_latency_hist_seqr::mean   127.596219                       (Unspecified)
system.caches.RequestType.IFETCH.miss_latency_hist_seqr::gmean    48.800947                       (Unspecified)
system.caches.RequestType.IFETCH.miss_latency_hist_seqr::stdev   157.105997                       (Unspecified)
system.caches.RequestType.IFETCH.miss_latency_hist_seqr |       29543     99.20%     99.20% |         151      0.51%     99.71% |          40      0.13%     99.84% |          41      0.14%     99.98% |           5      0.02%    100.00% |           1      0.00%    100.00% |           0      0.00%    100.00% |           0      0.00%    100.00% |           0      0.00%    100.00% |           0      0.00%    100.00% (Unspecified)
system.caches.RequestType.IFETCH.miss_latency_hist_seqr::total        29781                       (Unspecified)
system.caches.RequestType.RMW_Read.latency_hist_seqr::bucket_size          512                       (Unspecified)
system.caches.RequestType.RMW_Read.latency_hist_seqr::max_bucket         5119                       (Unspecified)
system.caches.RequestType.RMW_Read.latency_hist_seqr::samples         8452                       (Unspecified)
system.caches.RequestType.RMW_Read.latency_hist_seqr::mean    73.535968                       (Unspecified)
system.caches.RequestType.RMW_Read.latency_hist_seqr::gmean     4.325598                       (Unspecified)
system.caches.RequestType.RMW_Read.latency_hist_seqr::stdev   220.632782                       (Unspecified)
system.caches.RequestType.RMW_Read.latency_hist_seqr |        8033     95.04%     95.04% |         340      4.02%     99.07% |          54      0.64%     99.70% |          11      0.13%     99.83% |           7      0.08%     99.92% |           7      0.08%    100.00% |           0      0.00%    100.00% |           0      0.00%    100.00% |           0      0.00%    100.00% |           0      0.00%    100.00% (Unspecified)
system.caches.RequestType.RMW_Read.latency_hist_seqr::total         8452                       (Unspecified)
system.caches.RequestType.RMW_Read.hit_latency_hist_seqr::bucket_size          512                       (Unspecified)
system.caches.RequestType.RMW_Read.hit_latency_hist_seqr::max_bucket         5119                       (Unspecified)
system.caches.RequestType.RMW_Read.hit_latency_hist_seqr::samples         5947                       (Unspecified)
system.caches.RequestType.RMW_Read.hit_latency_hist_seqr::mean    14.493190                       (Unspecified)
system.caches.RequestType.RMW_Read.hit_latency_hist_seqr::gmean     1.498713                       (Unspecified)
system.caches.RequestType.RMW_Read.hit_latency_hist_seqr::stdev    94.831139                       (Unspecified)
system.caches.RequestType.RMW_Read.hit_latency_hist_seqr |        5894     99.11%     99.11% |          42      0.71%     99.82% |           8      0.13%     99.95% |           2      0.03%     99.98% |           0      0.00%     99.98% |           1      0.02%    100.00% |           0      0.00%    100.00% |           0      0.00%    100.00% |           0      0.00%    100.00% |           0      0.00%    100.00% (Unspecified)
system.caches.RequestType.RMW_Read.hit_latency_hist_seqr::total         5947                       (Unspecified)
system.caches.RequestType.RMW_Read.miss_latency_hist_seqr::bucket_size          512                       (Unspecified)
system.caches.RequestType.RMW_Read.miss_latency_hist_seqr::max_bucket         5119                       (Unspecified)
system.caches.RequestType.RMW_Read.miss_latency_hist_seqr::samples         2505                       (Unspecified)
system.caches.RequestType.RMW_Read.miss_latency_hist_seqr::mean   213.706587                       (Unspecified)
system.caches.RequestType.RMW_Read.miss_latency_hist_seqr::gmean    53.565847                       (Unspecified)
system.caches.RequestType.RMW_Read.miss_latency_hist_seqr::stdev   339.118508                       (Unspecified)
system.caches.RequestType.RMW_Read.miss_latency_hist_seqr |        2139     85.39%     85.39% |         298     11.90%     97.29% |          46      1.84%     99.12% |           9      0.36%     99.48% |           7      0.28%     99.76% |           6      0.24%    100.00% |           0      0.00%    100.00% |           0      0.00%    100.00% |           0      0.00%    100.00% |           0      0.00%    100.00% (Unspecified)
system.caches.RequestType.RMW_Read.miss_latency_hist_seqr::total         2505                       (Unspecified)
system.caches.RequestType.Locked_RMW_Read.latency_hist_seqr::bucket_size          512                       (Unspecified)
system.caches.RequestType.Locked_RMW_Read.latency_hist_seqr::max_bucket         5119                       (Unspecified)
system.caches.RequestType.Locked_RMW_Read.latency_hist_seqr::samples         1931                       (Unspecified)
system.caches.RequestType.Locked_RMW_Read.latency_hist_seqr::mean    72.495080                       (Unspecified)
system.caches.RequestType.Locked_RMW_Read.latency_hist_seqr::gmean     3.721308                       (Unspecified)
system.caches.RequestType.Locked_RMW_Read.latency_hist_seqr::stdev   218.916307                       (Unspecified)
system.caches.RequestType.Locked_RMW_Read.latency_hist_seqr |        1827     94.61%     94.61% |          80      4.14%     98.76% |          20      1.04%     99.79% |           1      0.05%     99.84% |           2      0.10%     99.95% |           1      0.05%    100.00% |           0      0.00%    100.00% |           0      0.00%    100.00% |           0      0.00%    100.00% |           0      0.00%    100.00% (Unspecified)
[...]
system.o3Cpu7.iew.predictedTakenIncorrect        15718                       # Number of branches that were predicted taken incorrectly (Count)
system.o3Cpu7.iew.predictedNotTakenIncorrect         1014                       # Number of branches that were predicted not taken incorrectly (Count)
system.o3Cpu7.iew.branchMispredicts             16732                       # Number of branch mispredicts detected at execute (Count)
system.o3Cpu7.iew.instsToCommit              53261585                       # Cumulative count of insts sent to commit (Count)
system.o3Cpu7.iew.writebackCount             53261319                       # Cumulative count of insts written-back (Count)
system.o3Cpu7.iew.producerInst               43807842                       # Number of instructions producing a value (Count)
system.o3Cpu7.iew.consumerInst               65215205                       # Number of instructions consuming a value (Count)
system.o3Cpu7.iew.wbRate                     0.401083                       # Insts written-back per cycle ((Count/Cycle))
system.o3Cpu7.iew.wbFanout                   0.671743                       # Average fanout of values written-back ((Count/Count))
system.o3Cpu7.interrupts.clk_domain.clock         3200                       # Clock period in ticks (Tick)
system.o3Cpu7.lsq0.forwLoads                     3175                       # Number of loads that had data forwarded from stores (Count)
system.o3Cpu7.lsq0.squashedLoads               120080                       # Number of loads squashed (Count)
system.o3Cpu7.lsq0.ignoredResponses                39                       # Number of memory responses ignored because the instruction is squashed (Count)
system.o3Cpu7.lsq0.memOrderViolation              235                       # Number of memory ordering violations (Count)
system.o3Cpu7.lsq0.squashedStores                3815                       # Number of stores squashed (Count)
system.o3Cpu7.lsq0.rescheduledLoads                39                       # Number of loads that were rescheduled (Count)
system.o3Cpu7.lsq0.blockedByCache             3304414                       # Number of times an access to memory failed due to the cache being blocked (Count)
system.o3Cpu7.lsq0.loadToUse::samples        11595479                       # Distribution of cycle latency between the first time a load is issued and its completion (Unspecified)
system.o3Cpu7.lsq0.loadToUse::mean         394.808189                       # Distribution of cycle latency between the first time a load is issued and its completion (Unspecified)
system.o3Cpu7.lsq0.loadToUse::stdev        409.977276                       # Distribution of cycle latency between the first time a load is issued and its completion (Unspecified)
system.o3Cpu7.lsq0.loadToUse::0-9             2154125     18.58%     18.58% # Distribution of cycle latency between the first time a load is issued and its completion (Unspecified)
system.o3Cpu7.lsq0.loadToUse::10-19            787886      6.79%     25.37% # Distribution of cycle latency between the first time a load is issued and its completion (Unspecified)
system.o3Cpu7.lsq0.loadToUse::20-29            609805      5.26%     30.63% # Distribution of cycle latency between the first time a load is issued and its completion (Unspecified)
system.o3Cpu7.lsq0.loadToUse::30-39            348575      3.01%     33.64% # Distribution of cycle latency between the first time a load is issued and its completion (Unspecified)
system.o3Cpu7.lsq0.loadToUse::40-49            162838      1.40%     35.04% # Distribution of cycle latency between the first time a load is issued and its completion (Unspecified)
system.o3Cpu7.lsq0.loadToUse::50-59             73336      0.63%     35.67% # Distribution of cycle latency between the first time a load is issued and its completion (Unspecified)
system.o3Cpu7.lsq0.loadToUse::60-69             44916      0.39%     36.06% # Distribution of cycle latency between the first time a load is issued and its completion (Unspecified)
system.o3Cpu7.lsq0.loadToUse::70-79             35234      0.30%     36.37% # Distribution of cycle latency between the first time a load is issued and its completion (Unspecified)
system.o3Cpu7.lsq0.loadToUse::80-89             31031      0.27%     36.63% # Distribution of cycle latency between the first time a load is issued and its completion (Unspecified)
system.o3Cpu7.lsq0.loadToUse::90-99             29144      0.25%     36.88% # Distribution of cycle latency between the first time a load is issued and its completion (Unspecified)
system.o3Cpu7.lsq0.loadToUse::100-109           26949      0.23%     37.12% # Distribution of cycle latency between the first time a load is issued and its completion (Unspecified)
system.o3Cpu7.lsq0.loadToUse::110-119           23453      0.20%     37.32% # Distribution of cycle latency between the first time a load is issued and its completion (Unspecified)
system.o3Cpu7.lsq0.loadToUse::120-129           22260      0.19%     37.51% # Distribution of cycle latency between the first time a load is issued and its completion (Unspecified)
system.o3Cpu7.lsq0.loadToUse::130-139           21836      0.19%     37.70% # Distribution of cycle latency between the first time a load is issued and its completion (Unspecified)
system.o3Cpu7.lsq0.loadToUse::140-149           19909      0.17%     37.87% # Distribution of cycle latency between the first time a load is issued and its completion (Unspecified)
system.o3Cpu7.lsq0.loadToUse::150-159           19823      0.17%     38.04% # Distribution of cycle latency between the first time a load is issued and its completion (Unspecified)
system.o3Cpu7.lsq0.loadToUse::160-169           18516      0.16%     38.20% # Distribution of cycle latency between the first time a load is issued and its completion (Unspecified)
system.o3Cpu7.lsq0.loadToUse::170-179           18629      0.16%     38.36% # Distribution of cycle latency between the first time a load is issued and its completion (Unspecified)
system.o3Cpu7.lsq0.loadToUse::180-189           18704      0.16%     38.52% # Distribution of cycle latency between the first time a load is issued and its completion (Unspecified)
system.o3Cpu7.lsq0.loadToUse::190-199           19645      0.17%     38.69% # Distribution of cycle latency between the first time a load is issued and its completion (Unspecified)
system.o3Cpu7.lsq0.loadToUse::200-209           19748      0.17%     38.86% # Distribution of cycle latency between the first time a load is issued and its completion (Unspecified)
system.o3Cpu7.lsq0.loadToUse::210-219           18917      0.16%     39.03% # Distribution of cycle latency between the first time a load is issued and its completion (Unspecified)
system.o3Cpu7.lsq0.loadToUse::220-229           19236      0.17%     39.19% # Distribution of cycle latency between the first time a load is issued and its completion (Unspecified)
system.o3Cpu7.lsq0.loadToUse::230-239           19390      0.17%     39.36% # Distribution of cycle latency between the first time a load is issued and its completion (Unspecified)
system.o3Cpu7.lsq0.loadToUse::240-249           19943      0.17%     39.53% # Distribution of cycle latency between the first time a load is issued and its completion (Unspecified)
system.o3Cpu7.lsq0.loadToUse::250-259           19906      0.17%     39.70% # Distribution of cycle latency between the first time a load is issued and its completion (Unspecified)
system.o3Cpu7.lsq0.loadToUse::260-269           20495      0.18%     39.88% # Distribution of cycle latency between the first time a load is issued and its completion (Unspecified)
system.o3Cpu7.lsq0.loadToUse::270-279           20707      0.18%     40.06% # Distribution of cycle latency between the first time a load is issued and its completion (Unspecified)
system.o3Cpu7.lsq0.loadToUse::280-289           21649      0.19%     40.25% # Distribution of cycle latency between the first time a load is issued and its completion (Unspecified)
system.o3Cpu7.lsq0.loadToUse::290-299           23587      0.20%     40.45% # Distribution of cycle latency between the first time a load is issued and its completion (Unspecified)
system.o3Cpu7.lsq0.loadToUse::overflows       6905287     59.55%    100.00% # Distribution of cycle latency between the first time a load is issued and its completion (Unspecified)
system.o3Cpu7.lsq0.loadToUse::min_value             2                       # Distribution of cycle latency between the first time a load is issued and its completion (Unspecified)
system.o3Cpu7.lsq0.loadToUse::max_value          5284                       # Distribution of cycle latency between the first time a load is issued and its completion (Unspecified)
system.o3Cpu7.lsq0.loadToUse::total          11595479                       # Distribution of cycle latency between the first time a load is issued and its completion (Unspecified)
system.o3Cpu7.mmu.dtb.rdAccesses             11646953                       # TLB accesses on read requests (Count)
system.o3Cpu7.mmu.dtb.wrAccesses                84934                       # TLB accesses on write requests (Count)
system.o3Cpu7.mmu.dtb.rdMisses                   6298                       # TLB misses on read requests (Count)
system.o3Cpu7.mmu.dtb.wrMisses                    683                       # TLB misses on write requests (Count)
system.o3Cpu7.mmu.dtb.walker.power_state.pwrStateResidencyTicks::UNDEFINED  28030663800                       # Cumulative time (in ticks) in various power states (Tick)
system.o3Cpu7.mmu.itb.rdAccesses                    0                       # TLB accesses on read requests (Count)
system.o3Cpu7.mmu.itb.wrAccesses                99194                       # TLB accesses on write requests (Count)
system.o3Cpu7.mmu.itb.rdMisses                      0                       # TLB misses on read requests (Count)
system.o3Cpu7.mmu.itb.wrMisses                     74                       # TLB misses on write requests (Count)
system.o3Cpu7.mmu.itb.walker.power_state.pwrStateResidencyTicks::UNDEFINED  28030663800                       # Cumulative time (in ticks) in various power states (Tick)
system.o3Cpu7.power_state.numTransitions            4                       # Number of power state transitions (Count)
system.o3Cpu7.power_state.ticksClkGated::samples            2                       # Distribution of time spent in the clock gated state (Tick)
system.o3Cpu7.power_state.ticksClkGated::mean    230703300                       # Distribution of time spent in the clock gated state (Tick)
system.o3Cpu7.power_state.ticksClkGated::stdev 301573546.844182                       # Distribution of time spent in the clock gated state (Tick)
system.o3Cpu7.power_state.ticksClkGated::1000-5e+10            2    100.00%    100.00% # Distribution of time spent in the clock gated state (Tick)
system.o3Cpu7.power_state.ticksClkGated::min_value     17458600                       # Distribution of time spent in the clock gated state (Tick)
system.o3Cpu7.power_state.ticksClkGated::max_value    443948000                       # Distribution of time spent in the clock gated state (Tick)
system.o3Cpu7.power_state.ticksClkGated::total            2                       # Distribution of time spent in the clock gated state (Tick)
system.o3Cpu7.power_state.pwrStateResidencyTicks::ON   6318430600                       # Cumulative time (in ticks) in various power states (Tick)
system.o3Cpu7.power_state.pwrStateResidencyTicks::CLK_GATED    461406600                       # Cumulative time (in ticks) in various power states (Tick)
system.o3Cpu7.power_state.pwrStateResidencyTicks::OFF  21250826600                       # Cumulative time (in ticks) in various power states (Tick)
system.o3Cpu7.rename.squashCycles               16912                       # Number of cycles rename is squashing (Cycle)
system.o3Cpu7.rename.idleCycles               1865516                       # Number of cycles rename is idle (Cycle)
system.o3Cpu7.rename.blockCycles             24279631                       # Number of cycles rename is blocking (Cycle)
system.o3Cpu7.rename.serializeStallCycles       157032                       # count of cycles rename stalled for serializing inst (Cycle)
system.o3Cpu7.rename.runCycles                2679769                       # Number of cycles rename is running (Cycle)
system.o3Cpu7.rename.unblockCycles          100747306                       # Number of cycles rename is unblocking (Cycle)
system.o3Cpu7.rename.renamedInsts            53672803                       # Number of instructions processed by rename (Count)
system.o3Cpu7.rename.ROBFullEvents              79558                       # Number of times rename has blocked due to ROB full (Count)
system.o3Cpu7.rename.IQFullEvents            26064578                       # Number of times rename has blocked due to IQ full (Count)
system.o3Cpu7.rename.LQFullEvents            97672254                       # Number of times rename has blocked due to LQ full (Count)
system.o3Cpu7.rename.SQFullEvents               67823                       # Number of times rename has blocked due to SQ full (Count)
system.o3Cpu7.rename.renamedOperands         91925046                       # Number of destination operands rename has renamed (Count)
system.o3Cpu7.rename.lookups                163042844                       # Number of register rename lookups that rename has made (Count)
system.o3Cpu7.rename.intLookups              53430601                       # Number of integer rename lookups (Count)
system.o3Cpu7.rename.fpLookups               23099756                       # Number of floating rename lookups (Count)
system.o3Cpu7.rename.committedMaps           90913657                       # Number of HB maps that are committed (Count)
system.o3Cpu7.rename.undoneMaps               1010909                       # Number of HB maps that are undone due to squashing (Count)
system.o3Cpu7.rename.serializing                 1432                       # count of serializing insts renamed (Count)
system.o3Cpu7.rename.tempSerializing             1496                       # count of temporary serializing insts renamed (Count)
system.o3Cpu7.rename.skidInsts               19909464                       # count of insts added to the skid buffer (Count)
system.o3Cpu7.rob.reads                     183209646                       # The number of ROB reads (Count)
system.o3Cpu7.rob.writes                    107171632                       # The number of ROB writes (Count)
system.o3Cpu7.thread_0.numInsts              28811767                       # Number of Instructions committed (Count)
system.o3Cpu7.thread_0.numOps                53065746                       # Number of Ops committed (Count)
system.o3Cpu7.thread_0.numMemRefs                   0                       # Number of Memory References (Count)
system.pc.bad_addr.power_state.pwrStateResidencyTicks::UNDEFINED  28030663800                       # Cumulative time (in ticks) in various power states (Tick)
system.pc.com_1.power_state.pwrStateResidencyTicks::UNDEFINED  28030663800                       # Cumulative time (in ticks) in various power states (Tick)
system.pc.default_bus.power_state.pwrStateResidencyTicks::UNDEFINED  28030663800                       # Cumulative time (in ticks) in various power states (Tick)
system.pc.empty_isa.power_state.pwrStateResidencyTicks::UNDEFINED  28030663800                       # Cumulative time (in ticks) in various power states (Tick)
system.pc.fake_com_2.power_state.pwrStateResidencyTicks::UNDEFINED  28030663800                       # Cumulative time (in ticks) in various power states (Tick)
system.pc.fake_com_3.power_state.pwrStateResidencyTicks::UNDEFINED  28030663800                       # Cumulative time (in ticks) in various power states (Tick)
system.pc.fake_com_4.power_state.pwrStateResidencyTicks::UNDEFINED  28030663800                       # Cumulative time (in ticks) in various power states (Tick)
system.pc.fake_floppy.power_state.pwrStateResidencyTicks::UNDEFINED  28030663800                       # Cumulative time (in ticks) in various power states (Tick)
system.pc.pci_host.power_state.pwrStateResidencyTicks::UNDEFINED  28030663800                       # Cumulative time (in ticks) in various power states (Tick)
system.pc.south_bridge.cmos.power_state.pwrStateResidencyTicks::UNDEFINED  28030663800                       # Cumulative time (in ticks) in various power states (Tick)
system.pc.south_bridge.dma1.power_state.pwrStateResidencyTicks::UNDEFINED  28030663800                       # Cumulative time (in ticks) in various power states (Tick)
system.pc.south_bridge.ide.disks0.IdeDisk.dmaReadFullPages            0                       # Number of full page size DMA reads (not PRD). (Count)
system.pc.south_bridge.ide.disks0.IdeDisk.dmaReadBytes            0                       # Number of bytes transfered via DMA reads (not PRD). (Byte)
system.pc.south_bridge.ide.disks0.IdeDisk.dmaReadTxs            0                       # Number of DMA read transactions (not PRD). (Count)
system.pc.south_bridge.ide.disks0.IdeDisk.dmaWriteFullPages            0                       # Number of full page size DMA writes. (Count)
system.pc.south_bridge.ide.disks0.IdeDisk.dmaWriteBytes            0                       # Number of bytes transfered via DMA writes. (Byte)
system.pc.south_bridge.ide.disks0.IdeDisk.dmaWriteTxs            0                       # Number of DMA write transactions. (Count)
system.pc.south_bridge.ide.disks1.IdeDisk.dmaReadFullPages            0                       # Number of full page size DMA reads (not PRD). (Count)
system.pc.south_bridge.ide.disks1.IdeDisk.dmaReadBytes            0                       # Number of bytes transfered via DMA reads (not PRD). (Byte)
system.pc.south_bridge.ide.disks1.IdeDisk.dmaReadTxs            0                       # Number of DMA read transactions (not PRD). (Count)
system.pc.south_bridge.ide.disks1.IdeDisk.dmaWriteFullPages            0                       # Number of full page size DMA writes. (Count)
system.pc.south_bridge.ide.disks1.IdeDisk.dmaWriteBytes            0                       # Number of bytes transfered via DMA writes. (Byte)
system.pc.south_bridge.ide.disks1.IdeDisk.dmaWriteTxs            0                       # Number of DMA write transactions. (Count)
system.pc.south_bridge.ide.power_state.pwrStateResidencyTicks::UNDEFINED  28030663800                       # Cumulative time (in ticks) in various power states (Tick)
system.pc.south_bridge.io_apic.power_state.pwrStateResidencyTicks::UNDEFINED  28030663800                       # Cumulative time (in ticks) in various power states (Tick)
system.pc.south_bridge.keyboard.power_state.pwrStateResidencyTicks::UNDEFINED  28030663800                       # Cumulative time (in ticks) in various power states (Tick)
system.pc.south_bridge.pic1.power_state.pwrStateResidencyTicks::UNDEFINED  28030663800                       # Cumulative time (in ticks) in various power states (Tick)
system.pc.south_bridge.pic2.power_state.pwrStateResidencyTicks::UNDEFINED  28030663800                       # Cumulative time (in ticks) in various power states (Tick)
system.pc.south_bridge.pit.power_state.pwrStateResidencyTicks::UNDEFINED  28030663800                       # Cumulative time (in ticks) in various power states (Tick)
system.pc.south_bridge.speaker.power_state.pwrStateResidencyTicks::UNDEFINED  28030663800                       # Cumulative time (in ticks) in various power states (Tick)
system.workload.inst.arm                            0                       # number of arm instructions executed (Count)
system.workload.inst.quiesce                        0                       # number of quiesce instructions executed (Count)

---------- End Simulation Statistics   ----------
