
---------- Begin Simulation Statistics ----------
simSeconds                                   0.048999                       # Number of seconds simulated (Second)
simTicks                                  48998722300                       # Number of ticks simulated (Tick)
finalTick                                163557000441000                       # Number of ticks from beginning of simulation (restored from checkpoints and never reset) (Tick)
simFreq                                  1000000000000                       # The number of ticks per simulated second ((Tick/Second))
hostSeconds                                   8055.20                       # Real time elapsed on the host (Second)
hostTickRate                                  6082870                       # The number of ticks simulated per host second (ticks/s) ((Tick/Second))
hostMemory                                   20023924                       # Number of bytes of host memory used (Byte)
simInsts                                    301263197                       # Number of instructions simulated (Count)
simOps                                      501503662                       # Number of ops (including micro ops) simulated (Count)
hostInstRate                                    37400                       # Simulator instruction rate (inst/s) ((Count/Second))
hostOpRate                                      62258                       # Simulator op (including micro ops) rate (op/s) ((Count/Second))
system.caches.delayHistogram::bucket_size          256                       # delay histogram for all message (Unspecified)
system.caches.delayHistogram::max_bucket         2559                       # delay histogram for all message (Unspecified)
system.caches.delayHistogram::samples        46066921                       # delay histogram for all message (Unspecified)
system.caches.delayHistogram::mean           0.539297                       # delay histogram for all message (Unspecified)
system.caches.delayHistogram::stdev          2.236292                       # delay histogram for all message (Unspecified)
system.caches.delayHistogram             |    46066904    100.00%    100.00% |           6      0.00%    100.00% |           2      0.00%    100.00% |           3      0.00%    100.00% |           2      0.00%    100.00% |           1      0.00%    100.00% |           1      0.00%    100.00% |           1      0.00%    100.00% |           1      0.00%    100.00% |           0      0.00%    100.00% # delay histogram for all message (Unspecified)
system.caches.delayHistogram::total          46066921                       # delay histogram for all message (Unspecified)
system.caches.m_outstandReqHistSeqr::bucket_size            2                       (Unspecified)
system.caches.m_outstandReqHistSeqr::max_bucket           19                       (Unspecified)
system.caches.m_outstandReqHistSeqr::samples    143063197                       (Unspecified)
system.caches.m_outstandReqHistSeqr::mean     4.347803                       (Unspecified)
system.caches.m_outstandReqHistSeqr::gmean     2.514070                       (Unspecified)
system.caches.m_outstandReqHistSeqr::stdev     4.853340                       (Unspecified)
system.caches.m_outstandReqHistSeqr      |    63627339     44.47%     44.47% |    30274702     21.16%     65.64% |    12800861      8.95%     74.58% |     7014146      4.90%     79.49% |     4185422      2.93%     82.41% |     3870823      2.71%     85.12% |     7283482      5.09%     90.21% |     4748529      3.32%     93.53% |     9257893      6.47%    100.00% |           0      0.00%    100.00% (Unspecified)
system.caches.m_outstandReqHistSeqr::total    143063197                       (Unspecified)
system.caches.m_latencyHistSeqr::bucket_size         1024                       (Unspecified)
system.caches.m_latencyHistSeqr::max_bucket        10239                       (Unspecified)
system.caches.m_latencyHistSeqr::samples    143356027                       (Unspecified)
system.caches.m_latencyHistSeqr::mean       32.046475                       (Unspecified)
system.caches.m_latencyHistSeqr::gmean       1.351848                       (Unspecified)
system.caches.m_latencyHistSeqr::stdev     170.775570                       (Unspecified)
system.caches.m_latencyHistSeqr          |   142462339     99.38%     99.38% |      757378      0.53%     99.90% |      112092      0.08%     99.98% |       23091      0.02%    100.00% |        1099      0.00%    100.00% |          26      0.00%    100.00% |           2      0.00%    100.00% |           0      0.00%    100.00% |           0      0.00%    100.00% |           0      0.00%    100.00% (Unspecified)
system.caches.m_latencyHistSeqr::total      143356027                       (Unspecified)
system.caches.m_hitLatencyHistSeqr::bucket_size          512                       (Unspecified)
system.caches.m_hitLatencyHistSeqr::max_bucket         5119                       (Unspecified)
system.caches.m_hitLatencyHistSeqr::samples    136694039                       (Unspecified)
system.caches.m_hitLatencyHistSeqr::mean     1.013909                       (Unspecified)
system.caches.m_hitLatencyHistSeqr::gmean     1.008392                       (Unspecified)
system.caches.m_hitLatencyHistSeqr::stdev     1.123807                       (Unspecified)
system.caches.m_hitLatencyHistSeqr       |   136693868    100.00%    100.00% |         155      0.00%    100.00% |           7      0.00%    100.00% |           5      0.00%    100.00% |           2      0.00%    100.00% |           2      0.00%    100.00% |           0      0.00%    100.00% |           0      0.00%    100.00% |           0      0.00%    100.00% |           0      0.00%    100.00% (Unspecified)
system.caches.m_hitLatencyHistSeqr::total    136694039                       (Unspecified)
system.caches.m_missLatencyHistSeqr::bucket_size         1024                       (Unspecified)
system.caches.m_missLatencyHistSeqr::max_bucket        10239                       (Unspecified)
system.caches.m_missLatencyHistSeqr::samples      6661988                       (Unspecified)
system.caches.m_missLatencyHistSeqr::mean   668.788363                       (Unspecified)
system.caches.m_missLatencyHistSeqr::gmean   553.230030                       (Unspecified)
system.caches.m_missLatencyHistSeqr::stdev   449.829082                       (Unspecified)
system.caches.m_missLatencyHistSeqr      |     5768316     86.59%     86.59% |      757366     11.37%     97.95% |      112088      1.68%     99.64% |       23091      0.35%     99.98% |        1099      0.02%    100.00% |          26      0.00%    100.00% |           2      0.00%    100.00% |           0      0.00%    100.00% |           0      0.00%    100.00% |           0      0.00%    100.00% (Unspecified)
system.caches.m_missLatencyHistSeqr::total      6661988                       (Unspecified)
system.caches.delayVCHist.vnet_0::bucket_size          256                       # delay histogram for vnet_0 (Unspecified)
system.caches.delayVCHist.vnet_0::max_bucket         2559                       # delay histogram for vnet_0 (Unspecified)
system.caches.delayVCHist.vnet_0::samples     19735511                       # delay histogram for vnet_0 (Unspecified)
system.caches.delayVCHist.vnet_0::mean       1.207785                       # delay histogram for vnet_0 (Unspecified)
system.caches.delayVCHist.vnet_0::stdev      3.244024                       # delay histogram for vnet_0 (Unspecified)
system.caches.delayVCHist.vnet_0         |    19735494    100.00%    100.00% |           6      0.00%    100.00% |           2      0.00%    100.00% |           3      0.00%    100.00% |           2      0.00%    100.00% |           1      0.00%    100.00% |           1      0.00%    100.00% |           1      0.00%    100.00% |           1      0.00%    100.00% |           0      0.00%    100.00% # delay histogram for vnet_0 (Unspecified)
system.caches.delayVCHist.vnet_0::total      19735511                       # delay histogram for vnet_0 (Unspecified)
system.caches.delayVCHist.vnet_1::bucket_size            8                       # delay histogram for vnet_1 (Unspecified)
system.caches.delayVCHist.vnet_1::max_bucket           79                       # delay histogram for vnet_1 (Unspecified)
system.caches.delayVCHist.vnet_1::samples     26233272                       # delay histogram for vnet_1 (Unspecified)
system.caches.delayVCHist.vnet_1::mean       0.038401                       # delay histogram for vnet_1 (Unspecified)
system.caches.delayVCHist.vnet_1::stdev      0.526084                       # delay histogram for vnet_1 (Unspecified)
system.caches.delayVCHist.vnet_1         |    26201737     99.88%     99.88% |       27566      0.11%     99.98% |        2703      0.01%    100.00% |         842      0.00%    100.00% |         348      0.00%    100.00% |          73      0.00%    100.00% |           3      0.00%    100.00% |           0      0.00%    100.00% |           0      0.00%    100.00% |           0      0.00%    100.00% # delay histogram for vnet_1 (Unspecified)
system.caches.delayVCHist.vnet_1::total      26233272                       # delay histogram for vnet_1 (Unspecified)
system.caches.delayVCHist.vnet_2::bucket_size            1                       # delay histogram for vnet_2 (Unspecified)
system.caches.delayVCHist.vnet_2::max_bucket            9                       # delay histogram for vnet_2 (Unspecified)
system.caches.delayVCHist.vnet_2::samples        98138                       # delay histogram for vnet_2 (Unspecified)
system.caches.delayVCHist.vnet_2::mean       0.001019                       # delay histogram for vnet_2 (Unspecified)
system.caches.delayVCHist.vnet_2::stdev      0.050260                       # delay histogram for vnet_2 (Unspecified)
system.caches.delayVCHist.vnet_2         |       98094     99.96%     99.96% |           0      0.00%     99.96% |          38      0.04%     99.99% |           0      0.00%     99.99% |           6      0.01%    100.00% |           0      0.00%    100.00% |           0      0.00%    100.00% |           0      0.00%    100.00% |           0      0.00%    100.00% |           0      0.00%    100.00% # delay histogram for vnet_2 (Unspecified)
system.caches.delayVCHist.vnet_2::total         98138                       # delay histogram for vnet_2 (Unspecified)
system.caches.L1Cache_Controller.Load    |     6008324     11.79%     11.79% |     6497987     12.76%     24.55% |     6030902     11.84%     36.39% |     6775859     13.30%     49.69% |     6731112     13.21%     62.91% |     6022186     11.82%     74.73% |     6357573     12.48%     87.21% |     6515699     12.79%    100.00% (Unspecified)
system.caches.L1Cache_Controller.Load::total     50939642                       (Unspecified)
system.caches.L1Cache_Controller.Ifetch  |     2793330     12.31%     12.31% |     2756367     12.15%     24.46% |     2788797     12.29%     36.75% |     2953910     13.02%     49.76% |     2886311     12.72%     62.48% |     2753035     12.13%     74.62% |     2867240     12.64%     87.25% |     2892814     12.75%    100.00% (Unspecified)
system.caches.L1Cache_Controller.Ifetch::total     22691804                       (Unspecified)
system.caches.L1Cache_Controller.Store   |     8652666     12.41%     12.41% |     8582696     12.31%     24.72% |     8655128     12.41%     37.13% |     8915402     12.79%     49.92% |     8777541     12.59%     62.51% |     8597572     12.33%     74.84% |     8748597     12.55%     87.39% |     8794983     12.61%    100.00% (Unspecified)
system.caches.L1Cache_Controller.Store::total     69724585                       (Unspecified)
system.caches.L1Cache_Controller.Inv     |       10201     10.87%     10.87% |       11504     12.26%     23.12% |       10509     11.20%     34.32% |       12407     13.22%     47.54% |       15261     16.26%     63.80% |        9298      9.91%     73.70% |       11217     11.95%     85.65% |       13467     14.35%    100.00% (Unspecified)
system.caches.L1Cache_Controller.Inv::total        93864                       (Unspecified)
system.caches.L1Cache_Controller.L1_Replacement |      828631     12.63%     12.63% |      818004     12.47%     25.09% |      818895     12.48%     37.57% |      824939     12.57%     50.15% |      818202     12.47%     62.62% |      818039     12.47%     75.08% |      818055     12.47%     87.55% |      816911     12.45%    100.00% (Unspecified)
system.caches.L1Cache_Controller.L1_Replacement::total      6561676                       (Unspecified)
system.caches.L1Cache_Controller.Fwd_GETX |          26     11.30%     11.30% |          35     15.22%     26.52% |          28     12.17%     38.70% |          26     11.30%     50.00% |          25     10.87%     60.87% |          28     12.17%     73.04% |          31     13.48%     86.52% |          31     13.48%    100.00% (Unspecified)
system.caches.L1Cache_Controller.Fwd_GETX::total          230                       (Unspecified)
system.caches.L1Cache_Controller.Fwd_GETS |        1164     28.78%     28.78% |         292      7.22%     36.00% |         298      7.37%     43.37% |         456     11.28%     54.65% |         519     12.83%     67.48% |         204      5.04%     72.53% |         305      7.54%     80.07% |         806     19.93%    100.00% (Unspecified)
system.caches.L1Cache_Controller.Fwd_GETS::total         4044                       (Unspecified)
system.caches.L1Cache_Controller.Data    |         109     90.08%     90.08% |           0      0.00%     90.08% |           1      0.83%     90.91% |           1      0.83%     91.74% |           8      6.61%     98.35% |           0      0.00%     98.35% |           1      0.83%     99.17% |           1      0.83%    100.00% (Unspecified)
system.caches.L1Cache_Controller.Data::total          121                       (Unspecified)
system.caches.L1Cache_Controller.Data_Exclusive |      570229     12.50%     12.50% |      568790     12.47%     24.98% |      569218     12.48%     37.46% |      576300     12.64%     50.09% |      569503     12.49%     62.58% |      567620     12.45%     75.03% |      569378     12.48%     87.51% |      569596     12.49%    100.00% (Unspecified)
system.caches.L1Cache_Controller.Data_Exclusive::total      4560634                       (Unspecified)
system.caches.L1Cache_Controller.DataS_fromL1 |         390      9.64%      9.64% |         856     21.17%     30.81% |         519     12.83%     43.64% |         486     12.02%     55.66% |         298      7.37%     63.03% |         549     13.58%     76.61% |         660     16.32%     92.93% |         286      7.07%    100.00% (Unspecified)
system.caches.L1Cache_Controller.DataS_fromL1::total         4044                       (Unspecified)
system.caches.L1Cache_Controller.Data_all_Acks |      263749     12.58%     12.58% |      261625     12.48%     25.06% |      262436     12.52%     37.57% |      261496     12.47%     50.05% |      262309     12.51%     62.56% |      263013     12.54%     75.10% |      261542     12.47%     87.57% |      260531     12.43%    100.00% (Unspecified)
system.caches.L1Cache_Controller.Data_all_Acks::total      2096701                       (Unspecified)
system.caches.L1Cache_Controller.Ack     |        1565     73.47%     73.47% |          52      2.44%     75.92% |          42      1.97%     77.89% |         102      4.79%     82.68% |         160      7.51%     90.19% |          60      2.82%     93.00% |          86      4.04%     97.04% |          63      2.96%    100.00% (Unspecified)
system.caches.L1Cache_Controller.Ack::total         2130                       (Unspecified)
system.caches.L1Cache_Controller.Ack_all |         339     55.67%     55.67% |          31      5.09%     60.76% |          22      3.61%     64.37% |          42      6.90%     71.26% |          66     10.84%     82.10% |          32      5.25%     87.36% |          44      7.22%     94.58% |          33      5.42%    100.00% (Unspecified)
system.caches.L1Cache_Controller.Ack_all::total          609                       (Unspecified)
system.caches.L1Cache_Controller.WB_Ack  |      820617     12.65%     12.65% |      808608     12.47%     25.12% |      810207     12.49%     37.62% |      814619     12.56%     50.18% |      805302     12.42%     62.60% |      810608     12.50%     75.10% |      809049     12.48%     87.58% |      805618     12.42%    100.00% (Unspecified)
system.caches.L1Cache_Controller.WB_Ack::total      6484628                       (Unspecified)
system.caches.L1Cache_Controller.NP.Load |      573528     12.50%     12.50% |      572100     12.47%     24.97% |      572722     12.48%     37.45% |      579807     12.64%     50.09% |      572700     12.48%     62.58% |      571154     12.45%     75.02% |      573053     12.49%     87.52% |      572765     12.48%    100.00% (Unspecified)
system.caches.L1Cache_Controller.NP.Load::total      4587829                       (Unspecified)
system.caches.L1Cache_Controller.NP.Ifetch |        1823     14.20%     14.20% |        1309     10.19%     24.39% |        1433     11.16%     35.55% |        1518     11.82%     47.37% |        2004     15.61%     62.98% |        1478     11.51%     74.49% |        1658     12.91%     87.40% |        1618     12.60%    100.00% (Unspecified)
system.caches.L1Cache_Controller.NP.Ifetch::total        12841                       (Unspecified)
system.caches.L1Cache_Controller.NP.Store |      253888     12.55%     12.55% |      253292     12.52%     25.08% |      253441     12.53%     37.61% |      252340     12.48%     50.08% |      252249     12.47%     62.55% |      254141     12.56%     75.12% |      252058     12.46%     87.58% |      251221     12.42%    100.00% (Unspecified)
system.caches.L1Cache_Controller.NP.Store::total      2022630                       (Unspecified)
system.caches.L1Cache_Controller.NP.Inv  |        1517     14.39%     14.39% |        1113     10.56%     24.95% |        1175     11.15%     36.10% |        1305     12.38%     48.48% |        1287     12.21%     60.69% |        1249     11.85%     72.54% |        1459     13.84%     86.39% |        1435     13.61%    100.00% (Unspecified)
system.caches.L1Cache_Controller.NP.Inv::total        10540                       (Unspecified)
system.caches.L1Cache_Controller.I.Load  |         534     10.98%     10.98% |         676     13.90%     24.88% |         643     13.22%     38.10% |         610     12.54%     50.65% |         634     13.04%     63.68% |         547     11.25%     74.93% |         601     12.36%     87.29% |         618     12.71%    100.00% (Unspecified)
system.caches.L1Cache_Controller.I.Load::total         4863                       (Unspecified)
system.caches.L1Cache_Controller.I.Ifetch |        4545     14.10%     14.10% |        3782     11.73%     25.83% |        3805     11.80%     37.63% |        3886     12.05%     49.68% |        4388     13.61%     63.29% |        3759     11.66%     74.95% |        4056     12.58%     87.53% |        4021     12.47%    100.00% (Unspecified)
system.caches.L1Cache_Controller.I.Ifetch::total        32242                       (Unspecified)
system.caches.L1Cache_Controller.I.Store |         159     14.47%     14.47% |         112     10.19%     24.66% |         131     11.92%     36.58% |         123     11.19%     47.77% |         144     13.10%     60.87% |         103      9.37%     70.25% |         156     14.19%     84.44% |         171     15.56%    100.00% (Unspecified)
system.caches.L1Cache_Controller.I.Store::total         1099                       (Unspecified)
system.caches.L1Cache_Controller.I.L1_Replacement |        2737      6.97%      6.97% |        5120     13.05%     20.02% |        4032     10.27%     30.29% |        5662     14.43%     44.72% |        8149     20.76%     65.48% |        2885      7.35%     72.84% |        4182     10.66%     83.49% |        6479     16.51%    100.00% (Unspecified)
system.caches.L1Cache_Controller.I.L1_Replacement::total        39246                       (Unspecified)
system.caches.L1Cache_Controller.S.Load  |     1664233     11.54%     11.54% |     2038784     14.14%     25.68% |     1629409     11.30%     36.98% |     1741355     12.08%     49.06% |     2163084     15.00%     64.06% |     1620700     11.24%     75.30% |     1889911     13.11%     88.41% |     1671309     11.59%    100.00% (Unspecified)
system.caches.L1Cache_Controller.S.Load::total     14418785                       (Unspecified)
system.caches.L1Cache_Controller.S.Ifetch |     2786962     12.31%     12.31% |     2751276     12.15%     24.45% |     2783559     12.29%     36.75% |     2948506     13.02%     49.77% |     2879919     12.72%     62.48% |     2747798     12.13%     74.62% |     2861526     12.64%     87.25% |     2887175     12.75%    100.00% (Unspecified)
system.caches.L1Cache_Controller.S.Ifetch::total     22646721                       (Unspecified)
system.caches.L1Cache_Controller.S.Store |         230     47.13%     47.13% |          31      6.35%     53.48% |          21      4.30%     57.79% |          41      8.40%     66.19% |          58     11.89%     78.07% |          32      6.56%     84.63% |          43      8.81%     93.44% |          32      6.56%    100.00% (Unspecified)
system.caches.L1Cache_Controller.S.Store::total          488                       (Unspecified)
system.caches.L1Cache_Controller.S.Inv   |        5436     13.37%     13.37% |        4890     12.03%     25.40% |        4809     11.83%     37.23% |        4981     12.25%     49.48% |        5639     13.87%     63.35% |        4786     11.77%     75.12% |        5080     12.49%     87.61% |        5036     12.39%    100.00% (Unspecified)
system.caches.L1Cache_Controller.S.Inv::total        40657                       (Unspecified)
system.caches.L1Cache_Controller.S.L1_Replacement |        5277     13.96%     13.96% |        4276     11.31%     25.27% |        4656     12.32%     37.59% |        4658     12.32%     49.91% |        4750     12.57%     62.48% |        4545     12.02%     74.50% |        4824     12.76%     87.26% |        4814     12.74%    100.00% (Unspecified)
system.caches.L1Cache_Controller.S.L1_Replacement::total        37800                       (Unspecified)
system.caches.L1Cache_Controller.E.Load  |     1967917     11.35%     11.35% |     2128237     12.27%     23.62% |     2037372     11.75%     35.37% |     2549287     14.70%     50.07% |     2137658     12.33%     62.39% |     2063880     11.90%     74.29% |     2050861     11.83%     86.12% |     2407502     13.88%    100.00% (Unspecified)
system.caches.L1Cache_Controller.E.Load::total     17342714                       (Unspecified)
system.caches.L1Cache_Controller.E.Store |       75009     12.58%     12.58% |       74547     12.50%     25.08% |       74605     12.51%     37.58% |       75782     12.71%     50.29% |       74035     12.41%     62.70% |       74037     12.41%     75.12% |       74245     12.45%     87.57% |       74162     12.43%    100.00% (Unspecified)
system.caches.L1Cache_Controller.E.Store::total       596422                       (Unspecified)
system.caches.L1Cache_Controller.E.Inv   |        2117      8.68%      8.68% |        3631     14.89%     23.57% |        3209     13.16%     36.73% |        4976     20.41%     57.14% |        2998     12.29%     69.43% |        1482      6.08%     75.51% |        2558     10.49%     86.00% |        3413     14.00%    100.00% (Unspecified)
system.caches.L1Cache_Controller.E.Inv::total        24384                       (Unspecified)
system.caches.L1Cache_Controller.E.L1_Replacement |      484480     12.42%     12.42% |      486482     12.47%     24.88% |      487301     12.49%     37.37% |      491386     12.59%     49.96% |      488321     12.51%     62.48% |      488072     12.51%     74.99% |      488594     12.52%     87.51% |      487466     12.49%    100.00% (Unspecified)
system.caches.L1Cache_Controller.E.L1_Replacement::total      3902102                       (Unspecified)
system.caches.L1Cache_Controller.E.Fwd_GETX |           9     12.68%     12.68% |          10     14.08%     26.76% |           9     12.68%     39.44% |          10     14.08%     53.52% |           3      4.23%     57.75% |           9     12.68%     70.42% |          10     14.08%     84.51% |          11     15.49%    100.00% (Unspecified)
system.caches.L1Cache_Controller.E.Fwd_GETX::total           71                       (Unspecified)
system.caches.L1Cache_Controller.E.Fwd_GETS |         828     24.50%     24.50% |         265      7.84%     32.35% |         280      8.29%     40.63% |         412     12.19%     52.83% |         382     11.31%     64.13% |         173      5.12%     69.25% |         263      7.78%     77.03% |         776     22.97%    100.00% (Unspecified)
system.caches.L1Cache_Controller.E.Fwd_GETS::total         3379                       (Unspecified)
system.caches.L1Cache_Controller.M.Load  |     1802112     12.36%     12.36% |     1758190     12.05%     24.41% |     1790756     12.28%     36.69% |     1904800     13.06%     49.75% |     1857036     12.73%     62.48% |     1765905     12.11%     74.59% |     1843147     12.64%     87.22% |     1863505     12.78%    100.00% (Unspecified)
system.caches.L1Cache_Controller.M.Load::total     14585451                       (Unspecified)
system.caches.L1Cache_Controller.M.Store |     8323380     12.40%     12.40% |     8254714     12.30%     24.71% |     8326930     12.41%     37.11% |     8587116     12.80%     49.91% |     8451055     12.59%     62.50% |     8269259     12.32%     74.83% |     8422095     12.55%     87.38% |     8469397     12.62%    100.00% (Unspecified)
system.caches.L1Cache_Controller.M.Store::total     67103946                       (Unspecified)
system.caches.L1Cache_Controller.M.Inv   |        1131      6.21%      6.21% |        1857     10.19%     16.40% |        1297      7.12%     23.52% |        1130      6.20%     29.72% |        5327     29.23%     58.95% |        1781      9.77%     68.72% |        2118     11.62%     80.35% |        3581     19.65%    100.00% (Unspecified)
system.caches.L1Cache_Controller.M.Inv::total        18222                       (Unspecified)
system.caches.L1Cache_Controller.M.L1_Replacement |      336137     13.02%     13.02% |      322126     12.47%     25.49% |      322906     12.50%     37.99% |      323233     12.52%     50.51% |      316981     12.27%     62.78% |      322536     12.49%     75.27% |      320455     12.41%     87.68% |      318152     12.32%    100.00% (Unspecified)
system.caches.L1Cache_Controller.M.L1_Replacement::total      2582526                       (Unspecified)
system.caches.L1Cache_Controller.M.Fwd_GETX |          17     10.69%     10.69% |          25     15.72%     26.42% |          19     11.95%     38.36% |          16     10.06%     48.43% |          22     13.84%     62.26% |          19     11.95%     74.21% |          21     13.21%     87.42% |          20     12.58%    100.00% (Unspecified)
system.caches.L1Cache_Controller.M.Fwd_GETX::total          159                       (Unspecified)
system.caches.L1Cache_Controller.M.Fwd_GETS |         336     50.53%     50.53% |          27      4.06%     54.59% |          18      2.71%     57.29% |          44      6.62%     63.91% |         137     20.60%     84.51% |          31      4.66%     89.17% |          42      6.32%     95.49% |          30      4.51%    100.00% (Unspecified)
system.caches.L1Cache_Controller.M.Fwd_GETS::total          665                       (Unspecified)
system.caches.L1Cache_Controller.IS.Inv  |           0      0.00%      0.00% |          13     21.31%     21.31% |          19     31.15%     52.46% |          15     24.59%     77.05% |          10     16.39%     93.44% |           0      0.00%     93.44% |           2      3.28%     96.72% |           2      3.28%    100.00% (Unspecified)
system.caches.L1Cache_Controller.IS.Inv::total           61                       (Unspecified)
system.caches.L1Cache_Controller.IS.L1_Replacement |           0      0.00%      0.00% |           0      0.00%      0.00% |           0      0.00%      0.00% |           0      0.00%      0.00% |           1    100.00%    100.00% |           0      0.00%    100.00% |           0      0.00%    100.00% |           0      0.00%    100.00% (Unspecified)
system.caches.L1Cache_Controller.IS.L1_Replacement::total            1                       (Unspecified)
system.caches.L1Cache_Controller.IS.Data_Exclusive |      570229     12.50%     12.50% |      568790     12.47%     24.98% |      569218     12.48%     37.46% |      576300     12.64%     50.09% |      569503     12.49%     62.58% |      567620     12.45%     75.03% |      569378     12.48%     87.51% |      569596     12.49%    100.00% (Unspecified)
system.caches.L1Cache_Controller.IS.Data_Exclusive::total      4560634                       (Unspecified)
system.caches.L1Cache_Controller.IS.DataS_fromL1 |         390      9.65%      9.65% |         855     21.15%     30.79% |         519     12.84%     43.63% |         486     12.02%     55.65% |         298      7.37%     63.02% |         549     13.58%     76.60% |         660     16.32%     92.93% |         286      7.07%    100.00% (Unspecified)
system.caches.L1Cache_Controller.IS.DataS_fromL1::total         4043                       (Unspecified)
system.caches.L1Cache_Controller.IS.Data_all_Acks |        9811     13.43%     13.43% |        8209     11.24%     24.67% |        8847     12.11%     36.79% |        9020     12.35%     49.14% |        9915     13.58%     62.71% |        8769     12.01%     74.72% |        9328     12.77%     87.49% |        9138     12.51%    100.00% (Unspecified)
system.caches.L1Cache_Controller.IS.Data_all_Acks::total        73037                       (Unspecified)
system.caches.L1Cache_Controller.IM.Data |         109     90.08%     90.08% |           0      0.00%     90.08% |           1      0.83%     90.91% |           1      0.83%     91.74% |           8      6.61%     98.35% |           0      0.00%     98.35% |           1      0.83%     99.17% |           1      0.83%    100.00% (Unspecified)
system.caches.L1Cache_Controller.IM.Data::total          121                       (Unspecified)
system.caches.L1Cache_Controller.IM.Data_all_Acks |      253938     12.55%     12.55% |      253404     12.52%     25.07% |      253570     12.53%     37.60% |      252461     12.48%     50.08% |      252384     12.47%     62.55% |      254244     12.56%     75.11% |      252212     12.46%     87.58% |      251391     12.42%    100.00% (Unspecified)
system.caches.L1Cache_Controller.IM.Data_all_Acks::total      2023604                       (Unspecified)
system.caches.L1Cache_Controller.SM.L1_Replacement |           0      0.00%      0.00% |           0      0.00%      0.00% |           0      0.00%      0.00% |           0      0.00%      0.00% |           0      0.00%      0.00% |           1    100.00%    100.00% |           0      0.00%    100.00% |           0      0.00%    100.00% (Unspecified)
system.caches.L1Cache_Controller.SM.L1_Replacement::total            1                       (Unspecified)
system.caches.L1Cache_Controller.SM.Ack  |        1565     73.47%     73.47% |          52      2.44%     75.92% |          42      1.97%     77.89% |         102      4.79%     82.68% |         160      7.51%     90.19% |          60      2.82%     93.00% |          86      4.04%     97.04% |          63      2.96%    100.00% (Unspecified)
system.caches.L1Cache_Controller.SM.Ack::total         2130                       (Unspecified)
system.caches.L1Cache_Controller.SM.Ack_all |         339     55.67%     55.67% |          31      5.09%     60.76% |          22      3.61%     64.37% |          42      6.90%     71.26% |          66     10.84%     82.10% |          32      5.25%     87.36% |          44      7.22%     94.58% |          33      5.42%    100.00% (Unspecified)
system.caches.L1Cache_Controller.SM.Ack_all::total          609                       (Unspecified)
system.caches.L1Cache_Controller.IS_I.DataS_fromL1 |           0      0.00%      0.00% |           1    100.00%    100.00% |           0      0.00%    100.00% |           0      0.00%    100.00% |           0      0.00%    100.00% |           0      0.00%    100.00% |           0      0.00%    100.00% |           0      0.00%    100.00% (Unspecified)
system.caches.L1Cache_Controller.IS_I.DataS_fromL1::total            1                       (Unspecified)
system.caches.L1Cache_Controller.IS_I.Data_all_Acks |           0      0.00%      0.00% |          12     20.00%     20.00% |          19     31.67%     51.67% |          15     25.00%     76.67% |          10     16.67%     93.33% |           0      0.00%     93.33% |           2      3.33%     96.67% |           2      3.33%    100.00% (Unspecified)
system.caches.L1Cache_Controller.IS_I.Data_all_Acks::total           60                       (Unspecified)
system.caches.L1Cache_Controller.M_I.WB_Ack |      820617     12.65%     12.65% |      808608     12.47%     25.12% |      810207     12.49%     37.62% |      814619     12.56%     50.18% |      805302     12.42%     62.60% |      810608     12.50%     75.10% |      809049     12.48%     87.58% |      805618     12.42%    100.00% (Unspecified)
system.caches.L1Cache_Controller.M_I.WB_Ack::total      6484628                       (Unspecified)
system.caches.Directory_Controller.Fetch |        6035      0.09%      0.09% |     6553877     99.91%    100.00% (Unspecified)
system.caches.Directory_Controller.Fetch::total      6559912                       (Unspecified)
system.caches.Directory_Controller.Data  |          82      0.00%      0.00% |     2576154    100.00%    100.00% (Unspecified)
system.caches.Directory_Controller.Data::total      2576236                       (Unspecified)
system.caches.Directory_Controller.Memory_Data |        6035      0.09%      0.09% |     6553874     99.91%    100.00% (Unspecified)
system.caches.Directory_Controller.Memory_Data::total      6559909                       (Unspecified)
system.caches.Directory_Controller.Memory_Ack |          82      0.00%      0.00% |     2576154    100.00%    100.00% (Unspecified)
system.caches.Directory_Controller.Memory_Ack::total      2576236                       (Unspecified)
system.caches.Directory_Controller.CleanReplacement |        5927      0.15%      0.15% |     3846677     99.85%    100.00% (Unspecified)
system.caches.Directory_Controller.CleanReplacement::total      3852604                       (Unspecified)
system.caches.Directory_Controller.I.Fetch |        6035      0.09%      0.09% |     6553877     99.91%    100.00% (Unspecified)
system.caches.Directory_Controller.I.Fetch::total      6559912                       (Unspecified)
system.caches.Directory_Controller.M.Data |          82      0.00%      0.00% |     2576154    100.00%    100.00% (Unspecified)
system.caches.Directory_Controller.M.Data::total      2576236                       (Unspecified)
system.caches.Directory_Controller.M.CleanReplacement |        5927      0.15%      0.15% |     3846677     99.85%    100.00% (Unspecified)
system.caches.Directory_Controller.M.CleanReplacement::total      3852604                       (Unspecified)
system.caches.Directory_Controller.IM.Memory_Data |        6035      0.09%      0.09% |     6553874     99.91%    100.00% (Unspecified)
system.caches.Directory_Controller.IM.Memory_Data::total      6559909                       (Unspecified)
system.caches.Directory_Controller.MI.Memory_Ack |          82      0.00%      0.00% |     2576154    100.00%    100.00% (Unspecified)
system.caches.Directory_Controller.MI.Memory_Ack::total      2576236                       (Unspecified)
system.caches.L2Cache_Controller.L1_GET_INSTR |        5824     12.91%     12.91% |        6604     14.64%     27.56% |        5298     11.75%     39.30% |        4341      9.62%     48.93% |        5551     12.31%     61.23% |        5592     12.40%     73.63% |        5649     12.52%     86.16% |        6243     13.84%    100.00% (Unspecified)
system.caches.L2Cache_Controller.L1_GET_INSTR::total        45102                       (Unspecified)
system.caches.L2Cache_Controller.L1_GETS |      576450     12.55%     12.55% |      574297     12.50%     25.05% |      573965     12.50%     37.55% |      573376     12.48%     50.03% |      573344     12.48%     62.51% |      573864     12.49%     75.00% |      573682     12.49%     87.49% |      574454     12.51%    100.00% (Unspecified)
system.caches.L2Cache_Controller.L1_GETS::total      4593432                       (Unspecified)
system.caches.L2Cache_Controller.L1_GETX |      253271     12.51%     12.51% |      252905     12.50%     25.01% |      252134     12.46%     37.47% |      252576     12.48%     49.95% |      252978     12.50%     62.45% |      253690     12.54%     74.98% |      252995     12.50%     87.49% |      253275     12.51%    100.00% (Unspecified)
system.caches.L2Cache_Controller.L1_GETX::total      2023824                       (Unspecified)
system.caches.L2Cache_Controller.L1_UPGRADE |          51      9.53%      9.53% |          60     11.21%     20.75% |          53      9.91%     30.65% |          13      2.43%     33.08% |          67     12.52%     45.61% |          27      5.05%     50.65% |         235     43.93%     94.58% |          29      5.42%    100.00% (Unspecified)
system.caches.L2Cache_Controller.L1_UPGRADE::total          535                       (Unspecified)
system.caches.L2Cache_Controller.L1_PUTX |      810579     12.50%     12.50% |      810752     12.50%     25.00% |      809411     12.48%     37.48% |      810209     12.49%     49.98% |      810637     12.50%     62.48% |      811770     12.52%     75.00% |      810500     12.50%     87.50% |      810770     12.50%    100.00% (Unspecified)
system.caches.L2Cache_Controller.L1_PUTX::total      6484628                       (Unspecified)
system.caches.L2Cache_Controller.L2_Replacement |      319873     12.50%     12.50% |      319791     12.50%     25.00% |      319879     12.50%     37.50% |      319859     12.50%     50.00% |      319817     12.50%     62.50% |      319830     12.50%     75.00% |      319812     12.50%     87.50% |      319837     12.50%    100.00% (Unspecified)
system.caches.L2Cache_Controller.L2_Replacement::total      2558698                       (Unspecified)
system.caches.L2Cache_Controller.L2_Replacement_clean |      483688     12.50%     12.50% |      483726     12.50%     25.00% |      483419     12.49%     37.49% |      483639     12.50%     49.98% |      483897     12.50%     62.49% |      484195     12.51%     75.00% |      483731     12.50%     87.50% |      483847     12.50%    100.00% (Unspecified)
system.caches.L2Cache_Controller.L2_Replacement_clean::total      3870142                       (Unspecified)
system.caches.L2Cache_Controller.Mem_Data |      819944     12.50%     12.50% |      819901     12.50%     25.00% |      819680     12.50%     37.49% |      819882     12.50%     49.99% |      820097     12.50%     62.49% |      820409     12.51%     75.00% |      819927     12.50%     87.50% |      820068     12.50%    100.00% (Unspecified)
system.caches.L2Cache_Controller.Mem_Data::total      6559908                       (Unspecified)
system.caches.L2Cache_Controller.Mem_Ack |      803561     12.50%     12.50% |      803517     12.50%     25.00% |      803298     12.50%     37.49% |      803498     12.50%     49.99% |      803714     12.50%     62.49% |      804025     12.51%     75.00% |      803543     12.50%     87.50% |      803684     12.50%    100.00% (Unspecified)
system.caches.L2Cache_Controller.Mem_Ack::total      6428840                       (Unspecified)
system.caches.L2Cache_Controller.WB_Data |        2456     13.00%     13.00% |        2295     12.15%     25.15% |        2130     11.28%     36.43% |        2263     11.98%     48.41% |        2293     12.14%     60.55% |        2472     13.09%     73.64% |        2530     13.40%     87.04% |        2448     12.96%    100.00% (Unspecified)
system.caches.L2Cache_Controller.WB_Data::total        18887                       (Unspecified)
system.caches.L2Cache_Controller.WB_Data_clean |         431     12.76%     12.76% |         398     11.78%     24.53% |         400     11.84%     36.37% |         437     12.93%     49.30% |         378     11.19%     60.49% |         441     13.05%     73.54% |         420     12.43%     85.97% |         474     14.03%    100.00% (Unspecified)
system.caches.L2Cache_Controller.WB_Data_clean::total         3379                       (Unspecified)
system.caches.L2Cache_Controller.Ack     |        5232     13.49%     13.49% |        4830     12.45%     25.94% |        4641     11.96%     37.90% |        4170     10.75%     48.65% |        4906     12.65%     61.30% |        5259     13.56%     74.86% |        4916     12.67%     87.53% |        4837     12.47%    100.00% (Unspecified)
system.caches.L2Cache_Controller.Ack::total        38791                       (Unspecified)
system.caches.L2Cache_Controller.Ack_all |        4301     12.43%     12.43% |        4391     12.69%     25.12% |        4172     12.06%     37.18% |        4226     12.21%     49.39% |        4339     12.54%     61.93% |        4464     12.90%     74.84% |        4325     12.50%     87.34% |        4382     12.66%    100.00% (Unspecified)
system.caches.L2Cache_Controller.Ack_all::total        34600                       (Unspecified)
system.caches.L2Cache_Controller.Unblock |         554     13.70%     13.70% |         460     11.37%     25.07% |         462     11.42%     36.50% |         493     12.19%     48.69% |         447     11.05%     59.74% |         469     11.60%     71.34% |         656     16.22%     87.56% |         503     12.44%    100.00% (Unspecified)
system.caches.L2Cache_Controller.Unblock::total         4044                       (Unspecified)
system.caches.L2Cache_Controller.Exclusive_Unblock |      823118     12.50%     12.50% |      823234     12.50%     25.00% |      821597     12.48%     37.48% |      822654     12.49%     49.97% |      823144     12.50%     62.47% |      824559     12.52%     74.99% |      823141     12.50%     87.50% |      823400     12.50%    100.00% (Unspecified)
system.caches.L2Cache_Controller.Exclusive_Unblock::total      6584847                       (Unspecified)
system.caches.L2Cache_Controller.NP.L1_GET_INSTR |         883     12.90%     12.90% |         897     13.11%     26.01% |         853     12.47%     38.48% |         734     10.73%     49.20% |         885     12.93%     62.14% |         879     12.85%     74.98% |         854     12.48%     87.46% |         858     12.54%    100.00% (Unspecified)
system.caches.L2Cache_Controller.NP.L1_GET_INSTR::total         6843                       (Unspecified)
system.caches.L2Cache_Controller.NP.L1_GETS |      567061     12.50%     12.50% |      567047     12.50%     25.00% |      566865     12.49%     37.49% |      567192     12.50%     49.99% |      567172     12.50%     62.50% |      567425     12.51%     75.00% |      566997     12.50%     87.50% |      567098     12.50%    100.00% (Unspecified)
system.caches.L2Cache_Controller.NP.L1_GETS::total      4536857                       (Unspecified)
system.caches.L2Cache_Controller.NP.L1_GETX |      252001     12.50%     12.50% |      251957     12.50%     25.00% |      251964     12.50%     37.49% |      251956     12.50%     49.99% |      252041     12.50%     62.49% |      252105     12.50%     74.99% |      252076     12.50%     87.50% |      252112     12.50%    100.00% (Unspecified)
system.caches.L2Cache_Controller.NP.L1_GETX::total      2016212                       (Unspecified)
system.caches.L2Cache_Controller.SS.L1_GET_INSTR |        3778     13.49%     13.49% |        4469     15.96%     29.45% |        3341     11.93%     41.38% |        2465      8.80%     50.18% |        3222     11.50%     61.68% |        3113     11.12%     72.80% |        3397     12.13%     84.93% |        4221     15.07%    100.00% (Unspecified)
system.caches.L2Cache_Controller.SS.L1_GET_INSTR::total        28006                       (Unspecified)
system.caches.L2Cache_Controller.SS.L1_GETS |        5856     21.92%     21.92% |        3344     12.51%     34.43% |        3937     14.73%     49.17% |        2557      9.57%     58.74% |        2577      9.64%     68.38% |        2324      8.70%     77.08% |        2496      9.34%     86.42% |        3629     13.58%    100.00% (Unspecified)
system.caches.L2Cache_Controller.SS.L1_GETS::total        26720                       (Unspecified)
system.caches.L2Cache_Controller.SS.L1_GETX |          72     59.50%     59.50% |           0      0.00%     59.50% |           0      0.00%     59.50% |           7      5.79%     65.29% |           6      4.96%     70.25% |           0      0.00%     70.25% |          36     29.75%    100.00% |           0      0.00%    100.00% (Unspecified)
system.caches.L2Cache_Controller.SS.L1_GETX::total          121                       (Unspecified)
system.caches.L2Cache_Controller.SS.L1_UPGRADE |          51     10.45%     10.45% |          60     12.30%     22.75% |          53     10.86%     33.61% |          13      2.66%     36.27% |          67     13.73%     50.00% |          27      5.53%     55.53% |         188     38.52%     94.06% |          29      5.94%    100.00% (Unspecified)
system.caches.L2Cache_Controller.SS.L1_UPGRADE::total          488                       (Unspecified)
system.caches.L2Cache_Controller.SS.L2_Replacement |           1      1.12%      1.12% |           4      4.49%      5.62% |          11     12.36%     17.98% |          44     49.44%     67.42% |           6      6.74%     74.16% |           5      5.62%     79.78% |          17     19.10%     98.88% |           1      1.12%    100.00% (Unspecified)
system.caches.L2Cache_Controller.SS.L2_Replacement::total           89                       (Unspecified)
system.caches.L2Cache_Controller.SS.L2_Replacement_clean |        1316     12.99%     12.99% |        1283     12.67%     25.66% |        1236     12.20%     37.87% |        1167     11.52%     49.39% |        1235     12.20%     61.59% |        1313     12.97%     74.55% |        1249     12.33%     86.89% |        1328     13.11%    100.00% (Unspecified)
system.caches.L2Cache_Controller.SS.L2_Replacement_clean::total        10127                       (Unspecified)
system.caches.L2Cache_Controller.M.L1_GET_INSTR |           1      9.09%      9.09% |           2     18.18%     27.27% |           1      9.09%     36.36% |           1      9.09%     45.45% |           1      9.09%     54.55% |           1      9.09%     63.64% |           2     18.18%     81.82% |           2     18.18%    100.00% (Unspecified)
system.caches.L2Cache_Controller.M.L1_GET_INSTR::total           11                       (Unspecified)
system.caches.L2Cache_Controller.M.L1_GETS |        2792     11.59%     11.59% |        3269     13.58%     25.17% |        2582     10.72%     35.89% |        2921     12.13%     48.02% |        3015     12.52%     60.54% |        3460     14.37%     74.91% |        2994     12.43%     87.34% |        3048     12.66%    100.00% (Unspecified)
system.caches.L2Cache_Controller.M.L1_GETS::total        24081                       (Unspecified)
system.caches.L2Cache_Controller.M.L1_GETX |        1178     16.44%     16.44% |         902     12.59%     29.03% |         147      2.05%     31.08% |         599      8.36%     39.44% |         819     11.43%     50.87% |        1511     21.09%     71.95% |         870     12.14%     84.09% |        1140     15.91%    100.00% (Unspecified)
system.caches.L2Cache_Controller.M.L1_GETX::total         7166                       (Unspecified)
system.caches.L2Cache_Controller.M.L2_Replacement |      319763     12.50%     12.50% |      319712     12.50%     25.00% |      319848     12.50%     37.50% |      319748     12.50%     50.00% |      319734     12.50%     62.50% |      319686     12.50%     75.00% |      319704     12.50%     87.50% |      319718     12.50%    100.00% (Unspecified)
system.caches.L2Cache_Controller.M.L2_Replacement::total      2557913                       (Unspecified)
system.caches.L2Cache_Controller.M.L2_Replacement_clean |      477164     12.50%     12.50% |      477181     12.50%     25.00% |      477210     12.50%     37.49% |      477317     12.50%     50.00% |      477417     12.50%     62.50% |      477431     12.50%     75.00% |      477220     12.50%     87.50% |      477165     12.50%    100.00% (Unspecified)
system.caches.L2Cache_Controller.M.L2_Replacement_clean::total      3818105                       (Unspecified)
system.caches.L2Cache_Controller.MT.L1_GETS |         554     13.70%     13.70% |         460     11.37%     25.07% |         462     11.42%     36.50% |         493     12.19%     48.69% |         447     11.05%     59.74% |         469     11.60%     71.34% |         656     16.22%     87.56% |         503     12.44%    100.00% (Unspecified)
system.caches.L2Cache_Controller.MT.L1_GETS::total         4044                       (Unspecified)
system.caches.L2Cache_Controller.MT.L1_GETX |          13      5.65%      5.65% |          37     16.09%     21.74% |          21      9.13%     30.87% |          12      5.22%     36.09% |          53     23.04%     59.13% |          71     30.87%     90.00% |           7      3.04%     93.04% |          16      6.96%    100.00% (Unspecified)
system.caches.L2Cache_Controller.MT.L1_GETX::total          230                       (Unspecified)
system.caches.L2Cache_Controller.MT.L1_PUTX |      810579     12.50%     12.50% |      810752     12.50%     25.00% |      809411     12.48%     37.48% |      810209     12.49%     49.98% |      810637     12.50%     62.48% |      811770     12.52%     75.00% |      810500     12.50%     87.50% |      810770     12.50%    100.00% (Unspecified)
system.caches.L2Cache_Controller.MT.L1_PUTX::total      6484628                       (Unspecified)
system.caches.L2Cache_Controller.MT.L2_Replacement |         109     15.66%     15.66% |          75     10.78%     26.44% |          20      2.87%     29.31% |          67      9.63%     38.94% |          77     11.06%     50.00% |         139     19.97%     69.97% |          91     13.07%     83.05% |         118     16.95%    100.00% (Unspecified)
system.caches.L2Cache_Controller.MT.L2_Replacement::total          696                       (Unspecified)
system.caches.L2Cache_Controller.MT.L2_Replacement_clean |        5208     12.43%     12.43% |        5262     12.56%     24.98% |        4973     11.87%     36.85% |        5155     12.30%     49.15% |        5245     12.51%     61.66% |        5451     13.01%     74.67% |        5262     12.56%     87.23% |        5354     12.77%    100.00% (Unspecified)
system.caches.L2Cache_Controller.MT.L2_Replacement_clean::total        41910                       (Unspecified)
system.caches.L2Cache_Controller.M_I.L1_GET_INSTR |           5     26.32%     26.32% |           5     26.32%     52.63% |           1      5.26%     57.89% |           5     26.32%     84.21% |           1      5.26%     89.47% |           1      5.26%     94.74% |           0      0.00%     94.74% |           1      5.26%    100.00% (Unspecified)
system.caches.L2Cache_Controller.M_I.L1_GET_INSTR::total           19                       (Unspecified)
system.caches.L2Cache_Controller.M_I.L1_GETS |           1     33.33%     33.33% |           1     33.33%     66.67% |           0      0.00%     66.67% |           1     33.33%    100.00% |           0      0.00%    100.00% |           0      0.00%    100.00% |           0      0.00%    100.00% |           0      0.00%    100.00% (Unspecified)
system.caches.L2Cache_Controller.M_I.L1_GETS::total            3                       (Unspecified)
system.caches.L2Cache_Controller.M_I.L1_GETX |           7     24.14%     24.14% |           1      3.45%     27.59% |           2      6.90%     34.48% |           2      6.90%     41.38% |           2      6.90%     48.28% |           3     10.34%     58.62% |           5     17.24%     75.86% |           7     24.14%    100.00% (Unspecified)
system.caches.L2Cache_Controller.M_I.L1_GETX::total           29                       (Unspecified)
system.caches.L2Cache_Controller.M_I.Mem_Ack |      803561     12.50%     12.50% |      803517     12.50%     25.00% |      803298     12.50%     37.49% |      803498     12.50%     49.99% |      803714     12.50%     62.49% |      804025     12.51%     75.00% |      803543     12.50%     87.50% |      803684     12.50%    100.00% (Unspecified)
system.caches.L2Cache_Controller.M_I.Mem_Ack::total      6428840                       (Unspecified)
system.caches.L2Cache_Controller.MT_I.WB_Data |         105     15.35%     15.35% |          73     10.67%     26.02% |          20      2.92%     28.95% |          66      9.65%     38.60% |          77     11.26%     49.85% |         136     19.88%     69.74% |          90     13.16%     82.89% |         117     17.11%    100.00% (Unspecified)
system.caches.L2Cache_Controller.MT_I.WB_Data::total          684                       (Unspecified)
system.caches.L2Cache_Controller.MT_I.Ack_all |           4     33.33%     33.33% |           2     16.67%     50.00% |           0      0.00%     50.00% |           1      8.33%     58.33% |           0      0.00%     58.33% |           3     25.00%     83.33% |           1      8.33%     91.67% |           1      8.33%    100.00% (Unspecified)
system.caches.L2Cache_Controller.MT_I.Ack_all::total           12                       (Unspecified)
system.caches.L2Cache_Controller.MCT_I.WB_Data |        2228     12.70%     12.70% |        2160     12.32%     25.02% |        2048     11.68%     36.70% |        2141     12.21%     48.91% |        2147     12.24%     61.15% |        2308     13.16%     74.31% |        2204     12.57%     86.87% |        2302     13.13%    100.00% (Unspecified)
system.caches.L2Cache_Controller.MCT_I.WB_Data::total        17538                       (Unspecified)
system.caches.L2Cache_Controller.MCT_I.Ack_all |        2980     12.23%     12.23% |        3102     12.73%     24.95% |        2925     12.00%     36.96% |        3014     12.37%     49.32% |        3098     12.71%     62.03% |        3143     12.90%     74.93% |        3058     12.55%     87.48% |        3052     12.52%    100.00% (Unspecified)
system.caches.L2Cache_Controller.MCT_I.Ack_all::total        24372                       (Unspecified)
system.caches.L2Cache_Controller.I_I.Ack |        5231     13.56%     13.56% |        4820     12.49%     26.05% |        4584     11.88%     37.93% |        4096     10.61%     48.54% |        4881     12.65%     61.19% |        5254     13.62%     74.81% |        4886     12.66%     87.47% |        4836     12.53%    100.00% (Unspecified)
system.caches.L2Cache_Controller.I_I.Ack::total        38588                       (Unspecified)
system.caches.L2Cache_Controller.I_I.Ack_all |        1316     12.99%     12.99% |        1283     12.67%     25.66% |        1236     12.20%     37.87% |        1167     11.52%     49.39% |        1235     12.20%     61.59% |        1313     12.97%     74.55% |        1249     12.33%     86.89% |        1328     13.11%    100.00% (Unspecified)
system.caches.L2Cache_Controller.I_I.Ack_all::total        10127                       (Unspecified)
system.caches.L2Cache_Controller.S_I.Ack |           1      0.49%      0.49% |          10      4.93%      5.42% |          57     28.08%     33.50% |          74     36.45%     69.95% |          25     12.32%     82.27% |           5      2.46%     84.73% |          30     14.78%     99.51% |           1      0.49%    100.00% (Unspecified)
system.caches.L2Cache_Controller.S_I.Ack::total          203                       (Unspecified)
system.caches.L2Cache_Controller.S_I.Ack_all |           1      1.12%      1.12% |           4      4.49%      5.62% |          11     12.36%     17.98% |          44     49.44%     67.42% |           6      6.74%     74.16% |           5      5.62%     79.78% |          17     19.10%     98.88% |           1      1.12%    100.00% (Unspecified)
system.caches.L2Cache_Controller.S_I.Ack_all::total           89                       (Unspecified)
system.caches.L2Cache_Controller.ISS.L1_GETS |          49     16.12%     16.12% |          38     12.50%     28.62% |          33     10.86%     39.47% |          46     15.13%     54.61% |          28      9.21%     63.82% |          40     13.16%     76.97% |          27      8.88%     85.86% |          43     14.14%    100.00% (Unspecified)
system.caches.L2Cache_Controller.ISS.L1_GETS::total          304                       (Unspecified)
system.caches.L2Cache_Controller.ISS.Mem_Data |      567012     12.50%     12.50% |      567009     12.50%     25.00% |      566832     12.49%     37.49% |      567146     12.50%     49.99% |      567144     12.50%     62.50% |      567385     12.51%     75.00% |      566970     12.50%     87.50% |      567055     12.50%    100.00% (Unspecified)
system.caches.L2Cache_Controller.ISS.Mem_Data::total      4536553                       (Unspecified)
system.caches.L2Cache_Controller.IS.L1_GET_INSTR |        1157     11.32%     11.32% |        1231     12.04%     23.36% |        1102     10.78%     34.14% |        1136     11.11%     45.25% |        1442     14.11%     59.36% |        1598     15.63%     74.99% |        1396     13.66%     88.64% |        1161     11.36%    100.00% (Unspecified)
system.caches.L2Cache_Controller.IS.L1_GET_INSTR::total        10223                       (Unspecified)
system.caches.L2Cache_Controller.IS.L1_GETS |         112     16.33%     16.33% |         110     16.03%     32.36% |          58      8.45%     40.82% |          87     12.68%     53.50% |          49      7.14%     60.64% |         117     17.06%     77.70% |          70     10.20%     87.90% |          83     12.10%    100.00% (Unspecified)
system.caches.L2Cache_Controller.IS.L1_GETS::total          686                       (Unspecified)
system.caches.L2Cache_Controller.IS.Mem_Data |         932     13.04%     13.04% |         935     13.08%     26.12% |         886     12.40%     38.52% |         780     10.91%     49.43% |         913     12.77%     62.21% |         919     12.86%     75.07% |         881     12.33%     87.39% |         901     12.61%    100.00% (Unspecified)
system.caches.L2Cache_Controller.IS.Mem_Data::total         7147                       (Unspecified)
system.caches.L2Cache_Controller.IM.L1_GETX |           0      0.00%      0.00% |           0      0.00%      0.00% |           0      0.00%      0.00% |           0      0.00%      0.00% |          19     95.00%     95.00% |           0      0.00%     95.00% |           1      5.00%    100.00% |           0      0.00%    100.00% (Unspecified)
system.caches.L2Cache_Controller.IM.L1_GETX::total           20                       (Unspecified)
system.caches.L2Cache_Controller.IM.Mem_Data |      252000     12.50%     12.50% |      251957     12.50%     25.00% |      251962     12.50%     37.49% |      251956     12.50%     49.99% |      252040     12.50%     62.49% |      252105     12.50%     74.99% |      252076     12.50%     87.50% |      252112     12.50%    100.00% (Unspecified)
system.caches.L2Cache_Controller.IM.Mem_Data::total      2016208                       (Unspecified)
system.caches.L2Cache_Controller.SS_MB.L1_GETS |           1      0.30%      0.30% |           0      0.00%      0.30% |           0      0.00%      0.30% |          42     12.57%     12.87% |          28      8.38%     21.26% |           0      0.00%     21.26% |         263     78.74%    100.00% |           0      0.00%    100.00% (Unspecified)
system.caches.L2Cache_Controller.SS_MB.L1_GETS::total          334                       (Unspecified)
system.caches.L2Cache_Controller.SS_MB.Exclusive_Unblock |         123     20.20%     20.20% |          60      9.85%     30.05% |          53      8.70%     38.75% |          20      3.28%     42.04% |          73     11.99%     54.02% |          27      4.43%     58.46% |         224     36.78%     95.24% |          29      4.76%    100.00% (Unspecified)
system.caches.L2Cache_Controller.SS_MB.Exclusive_Unblock::total          609                       (Unspecified)
system.caches.L2Cache_Controller.MT_MB.L1_GETS |           0      0.00%      0.00% |           0      0.00%      0.00% |           0      0.00%      0.00% |           0      0.00%      0.00% |           0      0.00%      0.00% |           7    100.00%    100.00% |           0      0.00%    100.00% |           0      0.00%    100.00% (Unspecified)
system.caches.L2Cache_Controller.MT_MB.L1_GETS::total            7                       (Unspecified)
system.caches.L2Cache_Controller.MT_MB.L1_GETX |           0      0.00%      0.00% |           8     17.39%     17.39% |           0      0.00%     17.39% |           0      0.00%     17.39% |          38     82.61%    100.00% |           0      0.00%    100.00% |           0      0.00%    100.00% |           0      0.00%    100.00% (Unspecified)
system.caches.L2Cache_Controller.MT_MB.L1_GETX::total           46                       (Unspecified)
system.caches.L2Cache_Controller.MT_MB.Exclusive_Unblock |      822995     12.50%     12.50% |      823174     12.50%     25.00% |      821544     12.48%     37.48% |      822634     12.49%     49.97% |      823071     12.50%     62.47% |      824532     12.52%     75.00% |      822917     12.50%     87.49% |      823371     12.51%    100.00% (Unspecified)
system.caches.L2Cache_Controller.MT_MB.Exclusive_Unblock::total      6584238                       (Unspecified)
system.caches.L2Cache_Controller.MT_IIB.L1_GETS |          23      5.91%      5.91% |          26      6.68%     12.60% |          28      7.20%     19.79% |          37      9.51%     29.31% |          28      7.20%     36.50% |          22      5.66%     42.16% |         175     44.99%     87.15% |          50     12.85%    100.00% (Unspecified)
system.caches.L2Cache_Controller.MT_IIB.L1_GETS::total          389                       (Unspecified)
system.caches.L2Cache_Controller.MT_IIB.WB_Data |         123     19.62%     19.62% |          62      9.89%     29.51% |          43      6.86%     36.36% |          38      6.06%     42.42% |          69     11.00%     53.43% |          28      4.47%     57.89% |         235     37.48%     95.37% |          29      4.63%    100.00% (Unspecified)
system.caches.L2Cache_Controller.MT_IIB.WB_Data::total          627                       (Unspecified)
system.caches.L2Cache_Controller.MT_IIB.WB_Data_clean |         431     12.76%     12.76% |         398     11.78%     24.53% |         400     11.84%     36.37% |         437     12.93%     49.30% |         378     11.19%     60.49% |         441     13.05%     73.54% |         420     12.43%     85.97% |         474     14.03%    100.00% (Unspecified)
system.caches.L2Cache_Controller.MT_IIB.WB_Data_clean::total         3379                       (Unspecified)
system.caches.L2Cache_Controller.MT_IIB.Unblock |           0      0.00%      0.00% |           0      0.00%      0.00% |          19     50.00%     50.00% |          18     47.37%     97.37% |           0      0.00%     97.37% |           0      0.00%     97.37% |           1      2.63%    100.00% |           0      0.00%    100.00% (Unspecified)
system.caches.L2Cache_Controller.MT_IIB.Unblock::total           38                       (Unspecified)
system.caches.L2Cache_Controller.MT_IB.WB_Data |           0      0.00%      0.00% |           0      0.00%      0.00% |          19     50.00%     50.00% |          18     47.37%     97.37% |           0      0.00%     97.37% |           0      0.00%     97.37% |           1      2.63%    100.00% |           0      0.00%    100.00% (Unspecified)
system.caches.L2Cache_Controller.MT_IB.WB_Data::total           38                       (Unspecified)
system.caches.L2Cache_Controller.MT_SB.L1_GETS |           1     14.29%     14.29% |           2     28.57%     42.86% |           0      0.00%     42.86% |           0      0.00%     42.86% |           0      0.00%     42.86% |           0      0.00%     42.86% |           4     57.14%    100.00% |           0      0.00%    100.00% (Unspecified)
system.caches.L2Cache_Controller.MT_SB.L1_GETS::total            7                       (Unspecified)
system.caches.L2Cache_Controller.MT_SB.L1_UPGRADE |           0      0.00%      0.00% |           0      0.00%      0.00% |           0      0.00%      0.00% |           0      0.00%      0.00% |           0      0.00%      0.00% |           0      0.00%      0.00% |          47    100.00%    100.00% |           0      0.00%    100.00% (Unspecified)
system.caches.L2Cache_Controller.MT_SB.L1_UPGRADE::total           47                       (Unspecified)
system.caches.L2Cache_Controller.MT_SB.Unblock |         554     13.83%     13.83% |         460     11.48%     25.31% |         443     11.06%     36.37% |         475     11.86%     48.23% |         447     11.16%     59.39% |         469     11.71%     71.09% |         655     16.35%     87.44% |         503     12.56%    100.00% (Unspecified)
system.caches.L2Cache_Controller.MT_SB.Unblock::total         4006                       (Unspecified)
system.caches.RequestType.LD.latency_hist_seqr::bucket_size         1024                       (Unspecified)
system.caches.RequestType.LD.latency_hist_seqr::max_bucket        10239                       (Unspecified)
system.caches.RequestType.LD.latency_hist_seqr::samples     50939642                       (Unspecified)
system.caches.RequestType.LD.latency_hist_seqr::mean    64.664900                       (Unspecified)
system.caches.RequestType.LD.latency_hist_seqr::gmean     1.793019                       (Unspecified)
system.caches.RequestType.LD.latency_hist_seqr::stdev   243.407001                       (Unspecified)
system.caches.RequestType.LD.latency_hist_seqr |    50246432     98.64%     98.64% |      592179      1.16%     99.80% |       82505      0.16%     99.96% |       17733      0.03%    100.00% |         770      0.00%    100.00% |          21      0.00%    100.00% |           2      0.00%    100.00% |           0      0.00%    100.00% |           0      0.00%    100.00% |           0      0.00%    100.00% (Unspecified)
system.caches.RequestType.LD.latency_hist_seqr::total     50939642                       (Unspecified)
system.caches.RequestType.LD.hit_latency_hist_seqr::bucket_size            1                       (Unspecified)
system.caches.RequestType.LD.hit_latency_hist_seqr::max_bucket            9                       (Unspecified)
system.caches.RequestType.LD.hit_latency_hist_seqr::samples     46346950                       (Unspecified)
system.caches.RequestType.LD.hit_latency_hist_seqr::mean     1.011611                       (Unspecified)
system.caches.RequestType.LD.hit_latency_hist_seqr::gmean     1.008081                       (Unspecified)
system.caches.RequestType.LD.hit_latency_hist_seqr::stdev     0.107143                       (Unspecified)
system.caches.RequestType.LD.hit_latency_hist_seqr |           0      0.00%      0.00% |    45808860     98.84%     98.84% |      538023      1.16%    100.00% |          67      0.00%    100.00% |           0      0.00%    100.00% |           0      0.00%    100.00% |           0      0.00%    100.00% |           0      0.00%    100.00% |           0      0.00%    100.00% |           0      0.00%    100.00% (Unspecified)
system.caches.RequestType.LD.hit_latency_hist_seqr::total     46346950                       (Unspecified)
system.caches.RequestType.LD.miss_latency_hist_seqr::bucket_size         1024                       (Unspecified)
system.caches.RequestType.LD.miss_latency_hist_seqr::max_bucket        10239                       (Unspecified)
system.caches.RequestType.LD.miss_latency_hist_seqr::samples      4592692                       (Unspecified)
system.caches.RequestType.LD.miss_latency_hist_seqr::mean   707.019272                       (Unspecified)
system.caches.RequestType.LD.miss_latency_hist_seqr::gmean   598.898094                       (Unspecified)
system.caches.RequestType.LD.miss_latency_hist_seqr::stdev   451.251547                       (Unspecified)
system.caches.RequestType.LD.miss_latency_hist_seqr |     3899482     84.91%     84.91% |      592179     12.89%     97.80% |       82505      1.80%     99.60% |       17733      0.39%     99.98% |         770      0.02%    100.00% |          21      0.00%    100.00% |           2      0.00%    100.00% |           0      0.00%    100.00% |           0      0.00%    100.00% |           0      0.00%    100.00% (Unspecified)
system.caches.RequestType.LD.miss_latency_hist_seqr::total      4592692                       (Unspecified)
system.caches.RequestType.ST.latency_hist_seqr::bucket_size         1024                       (Unspecified)
system.caches.RequestType.ST.latency_hist_seqr::max_bucket        10239                       (Unspecified)
system.caches.RequestType.ST.latency_hist_seqr::samples     69470016                       (Unspecified)
system.caches.RequestType.ST.latency_hist_seqr::mean    18.292499                       (Unspecified)
system.caches.RequestType.ST.latency_hist_seqr::gmean     1.210562                       (Unspecified)
system.caches.RequestType.ST.latency_hist_seqr::stdev   124.131315                       (Unspecified)
system.caches.RequestType.ST.latency_hist_seqr |    69270044     99.71%     99.71% |      164791      0.24%     99.95% |       29505      0.04%     99.99% |        5342      0.01%    100.00% |         329      0.00%    100.00% |           5      0.00%    100.00% |           0      0.00%    100.00% |           0      0.00%    100.00% |           0      0.00%    100.00% |           0      0.00%    100.00% (Unspecified)
system.caches.RequestType.ST.latency_hist_seqr::total     69470016                       (Unspecified)
system.caches.RequestType.ST.hit_latency_hist_seqr::bucket_size          512                       (Unspecified)
system.caches.RequestType.ST.hit_latency_hist_seqr::max_bucket         5119                       (Unspecified)
system.caches.RequestType.ST.hit_latency_hist_seqr::samples     67450302                       (Unspecified)
system.caches.RequestType.ST.hit_latency_hist_seqr::mean     1.018993                       (Unspecified)
system.caches.RequestType.ST.hit_latency_hist_seqr::gmean     1.011233                       (Unspecified)
system.caches.RequestType.ST.hit_latency_hist_seqr::stdev     1.420833                       (Unspecified)
system.caches.RequestType.ST.hit_latency_hist_seqr |    67450174    100.00%    100.00% |         115      0.00%    100.00% |           6      0.00%    100.00% |           3      0.00%    100.00% |           2      0.00%    100.00% |           2      0.00%    100.00% |           0      0.00%    100.00% |           0      0.00%    100.00% |           0      0.00%    100.00% |           0      0.00%    100.00% (Unspecified)
system.caches.RequestType.ST.hit_latency_hist_seqr::total     67450302                       (Unspecified)
system.caches.RequestType.ST.miss_latency_hist_seqr::bucket_size         1024                       (Unspecified)
system.caches.RequestType.ST.miss_latency_hist_seqr::max_bucket        10239                       (Unspecified)
system.caches.RequestType.ST.miss_latency_hist_seqr::samples      2019714                       (Unspecified)
system.caches.RequestType.ST.miss_latency_hist_seqr::mean   595.157940                       (Unspecified)
system.caches.RequestType.ST.miss_latency_hist_seqr::gmean   492.506237                       (Unspecified)
system.caches.RequestType.ST.miss_latency_hist_seqr::stdev   432.651781                       (Unspecified)
system.caches.RequestType.ST.miss_latency_hist_seqr |     1819755     90.10%     90.10% |      164782      8.16%     98.26% |       29501      1.46%     99.72% |        5342      0.26%     99.98% |         329      0.02%    100.00% |           5      0.00%    100.00% |           0      0.00%    100.00% |           0      0.00%    100.00% |           0      0.00%    100.00% |           0      0.00%    100.00% (Unspecified)
system.caches.RequestType.ST.miss_latency_hist_seqr::total      2019714                       (Unspecified)
system.caches.RequestType.IFETCH.latency_hist_seqr::bucket_size          512                       (Unspecified)
system.caches.RequestType.IFETCH.latency_hist_seqr::max_bucket         5119                       (Unspecified)
system.caches.RequestType.IFETCH.latency_hist_seqr::samples     22691804                       (Unspecified)
system.caches.RequestType.IFETCH.latency_hist_seqr::mean     1.256583                       (Unspecified)
system.caches.RequestType.IFETCH.latency_hist_seqr::gmean     1.007839                       (Unspecified)
system.caches.RequestType.IFETCH.latency_hist_seqr::stdev    11.587736                       (Unspecified)
system.caches.RequestType.IFETCH.latency_hist_seqr |    22690379     99.99%     99.99% |         963      0.00%    100.00% |         247      0.00%    100.00% |         126      0.00%    100.00% |          34      0.00%    100.00% |          39      0.00%    100.00% |           7      0.00%    100.00% |           9      0.00%    100.00% |           0      0.00%    100.00% |           0      0.00%    100.00% (Unspecified)
system.caches.RequestType.IFETCH.latency_hist_seqr::total     22691804                       (Unspecified)
system.caches.RequestType.IFETCH.hit_latency_hist_seqr::bucket_size            1                       (Unspecified)
system.caches.RequestType.IFETCH.hit_latency_hist_seqr::max_bucket            9                       (Unspecified)
system.caches.RequestType.IFETCH.hit_latency_hist_seqr::samples     22646721                       (Unspecified)
system.caches.RequestType.IFETCH.hit_latency_hist_seqr::mean     1.000541                       (Unspecified)
system.caches.RequestType.IFETCH.hit_latency_hist_seqr::gmean     1.000375                       (Unspecified)
system.caches.RequestType.IFETCH.hit_latency_hist_seqr::stdev     0.023258                       (Unspecified)
system.caches.RequestType.IFETCH.hit_latency_hist_seqr |           0      0.00%      0.00% |    22634470     99.95%     99.95% |       12249      0.05%    100.00% |           2      0.00%    100.00% |           0      0.00%    100.00% |           0      0.00%    100.00% |           0      0.00%    100.00% |           0      0.00%    100.00% |           0      0.00%    100.00% |           0      0.00%    100.00% (Unspecified)
system.caches.RequestType.IFETCH.hit_latency_hist_seqr::total     22646721                       (Unspecified)
system.caches.RequestType.IFETCH.miss_latency_hist_seqr::bucket_size          512                       (Unspecified)
system.caches.RequestType.IFETCH.miss_latency_hist_seqr::max_bucket         5119                       (Unspecified)
system.caches.RequestType.IFETCH.miss_latency_hist_seqr::samples        45083                       (Unspecified)
system.caches.RequestType.IFETCH.miss_latency_hist_seqr::mean   129.874920                       (Unspecified)
system.caches.RequestType.IFETCH.miss_latency_hist_seqr::gmean    42.170015                       (Unspecified)
system.caches.RequestType.IFETCH.miss_latency_hist_seqr::stdev   225.855555                       (Unspecified)
system.caches.RequestType.IFETCH.miss_latency_hist_seqr |       43658     96.84%     96.84% |         963      2.14%     98.98% |         247      0.55%     99.52% |         126      0.28%     99.80% |          34      0.08%     99.88% |          39      0.09%     99.96% |           7      0.02%     99.98% |           9      0.02%    100.00% |           0      0.00%    100.00% |           0      0.00%    100.00% (Unspecified)
system.caches.RequestType.IFETCH.miss_latency_hist_seqr::total        45083                       (Unspecified)
system.caches.RequestType.RMW_Read.latency_hist_seqr::bucket_size          512                       (Unspecified)
system.caches.RequestType.RMW_Read.latency_hist_seqr::max_bucket         5119                       (Unspecified)
system.caches.RequestType.RMW_Read.latency_hist_seqr::samples       247489                       (Unspecified)
system.caches.RequestType.RMW_Read.latency_hist_seqr::mean     2.690891                       (Unspecified)
system.caches.RequestType.RMW_Read.latency_hist_seqr::gmean     1.080896                       (Unspecified)
system.caches.RequestType.RMW_Read.latency_hist_seqr::stdev    32.784138                       (Unspecified)
system.caches.RequestType.RMW_Read.latency_hist_seqr |      247226     99.89%     99.89% |         223      0.09%     99.98% |          25      0.01%     99.99% |           6      0.00%    100.00% |           7      0.00%    100.00% |           2      0.00%    100.00% |           0      0.00%    100.00% |           0      0.00%    100.00% |           0      0.00%    100.00% |           0      0.00%    100.00% (Unspecified)
system.caches.RequestType.RMW_Read.latency_hist_seqr::total       247489                       (Unspecified)
system.caches.RequestType.RMW_Read.hit_latency_hist_seqr::bucket_size          256                       (Unspecified)
system.caches.RequestType.RMW_Read.hit_latency_hist_seqr::max_bucket         2559                       (Unspecified)
system.caches.RequestType.RMW_Read.hit_latency_hist_seqr::samples       243944                       (Unspecified)
system.caches.RequestType.RMW_Read.hit_latency_hist_seqr::mean     1.286139                       (Unspecified)
system.caches.RequestType.RMW_Read.hit_latency_hist_seqr::gmean     1.030714                       (Unspecified)
system.caches.RequestType.RMW_Read.hit_latency_hist_seqr::stdev    12.131483                       (Unspecified)
system.caches.RequestType.RMW_Read.hit_latency_hist_seqr |      243848     99.96%     99.96% |          53      0.02%     99.98% |          30      0.01%     99.99% |          10      0.00%    100.00% |           1      0.00%    100.00% |           0      0.00%    100.00% |           1      0.00%    100.00% |           1      0.00%    100.00% |           0      0.00%    100.00% |           0      0.00%    100.00% (Unspecified)
system.caches.RequestType.RMW_Read.hit_latency_hist_seqr::total       243944                       (Unspecified)
system.caches.RequestType.RMW_Read.miss_latency_hist_seqr::bucket_size          512                       (Unspecified)
system.caches.RequestType.RMW_Read.miss_latency_hist_seqr::max_bucket         5119                       (Unspecified)
system.caches.RequestType.RMW_Read.miss_latency_hist_seqr::samples         3545                       (Unspecified)
system.caches.RequestType.RMW_Read.miss_latency_hist_seqr::mean    99.356841                       (Unspecified)
system.caches.RequestType.RMW_Read.miss_latency_hist_seqr::gmean    28.476062                       (Unspecified)
system.caches.RequestType.RMW_Read.miss_latency_hist_seqr::stdev   235.464148                       (Unspecified)
[...]
system.o3Cpu7.iew.predictedTakenIncorrect         8553                       # Number of branches that were predicted taken incorrectly (Count)
system.o3Cpu7.iew.predictedNotTakenIncorrect         3396                       # Number of branches that were predicted not taken incorrectly (Count)
system.o3Cpu7.iew.branchMispredicts             11949                       # Number of branch mispredicts detected at execute (Count)
system.o3Cpu7.iew.instsToCommit              63679892                       # Cumulative count of insts sent to commit (Count)
system.o3Cpu7.iew.writebackCount             63677645                       # Cumulative count of insts written-back (Count)
system.o3Cpu7.iew.producerInst               41598021                       # Number of instructions producing a value (Count)
system.o3Cpu7.iew.consumerInst               64257331                       # Number of instructions consuming a value (Count)
system.o3Cpu7.iew.wbRate                     0.262778                       # Insts written-back per cycle ((Count/Cycle))
system.o3Cpu7.iew.wbFanout                   0.647366                       # Average fanout of values written-back ((Count/Count))
system.o3Cpu7.interrupts.clk_domain.clock         3200                       # Clock period in ticks (Tick)
system.o3Cpu7.lsq0.forwLoads                  1615531                       # Number of loads that had data forwarded from stores (Count)
system.o3Cpu7.lsq0.squashedLoads                64328                       # Number of loads squashed (Count)
system.o3Cpu7.lsq0.ignoredResponses               113                       # Number of memory responses ignored because the instruction is squashed (Count)
system.o3Cpu7.lsq0.memOrderViolation             2114                       # Number of memory ordering violations (Count)
system.o3Cpu7.lsq0.squashedStores               45061                       # Number of stores squashed (Count)
system.o3Cpu7.lsq0.rescheduledLoads                51                       # Number of loads that were rescheduled (Count)
system.o3Cpu7.lsq0.blockedByCache              731144                       # Number of times an access to memory failed due to the cache being blocked (Count)
system.o3Cpu7.lsq0.loadToUse::samples        12603427                       # Distribution of cycle latency between the first time a load is issued and its completion (Unspecified)
system.o3Cpu7.lsq0.loadToUse::mean         177.029234                       # Distribution of cycle latency between the first time a load is issued and its completion (Unspecified)
system.o3Cpu7.lsq0.loadToUse::stdev        370.514335                       # Distribution of cycle latency between the first time a load is issued and its completion (Unspecified)
system.o3Cpu7.lsq0.loadToUse::0-9             9026714     71.62%     71.62% # Distribution of cycle latency between the first time a load is issued and its completion (Unspecified)
system.o3Cpu7.lsq0.loadToUse::10-19             64647      0.51%     72.13% # Distribution of cycle latency between the first time a load is issued and its completion (Unspecified)
system.o3Cpu7.lsq0.loadToUse::20-29             58409      0.46%     72.60% # Distribution of cycle latency between the first time a load is issued and its completion (Unspecified)
system.o3Cpu7.lsq0.loadToUse::30-39             38409      0.30%     72.90% # Distribution of cycle latency between the first time a load is issued and its completion (Unspecified)
system.o3Cpu7.lsq0.loadToUse::40-49             26193      0.21%     73.11% # Distribution of cycle latency between the first time a load is issued and its completion (Unspecified)
system.o3Cpu7.lsq0.loadToUse::50-59             22073      0.18%     73.29% # Distribution of cycle latency between the first time a load is issued and its completion (Unspecified)
system.o3Cpu7.lsq0.loadToUse::60-69             24534      0.19%     73.48% # Distribution of cycle latency between the first time a load is issued and its completion (Unspecified)
system.o3Cpu7.lsq0.loadToUse::70-79             18336      0.15%     73.63% # Distribution of cycle latency between the first time a load is issued and its completion (Unspecified)
system.o3Cpu7.lsq0.loadToUse::80-89             19500      0.15%     73.78% # Distribution of cycle latency between the first time a load is issued and its completion (Unspecified)
system.o3Cpu7.lsq0.loadToUse::90-99             19428      0.15%     73.93% # Distribution of cycle latency between the first time a load is issued and its completion (Unspecified)
system.o3Cpu7.lsq0.loadToUse::100-109           17091      0.14%     74.07% # Distribution of cycle latency between the first time a load is issued and its completion (Unspecified)
system.o3Cpu7.lsq0.loadToUse::110-119           16945      0.13%     74.20% # Distribution of cycle latency between the first time a load is issued and its completion (Unspecified)
system.o3Cpu7.lsq0.loadToUse::120-129           14890      0.12%     74.32% # Distribution of cycle latency between the first time a load is issued and its completion (Unspecified)
system.o3Cpu7.lsq0.loadToUse::130-139           17998      0.14%     74.47% # Distribution of cycle latency between the first time a load is issued and its completion (Unspecified)
system.o3Cpu7.lsq0.loadToUse::140-149           15113      0.12%     74.59% # Distribution of cycle latency between the first time a load is issued and its completion (Unspecified)
system.o3Cpu7.lsq0.loadToUse::150-159           14783      0.12%     74.70% # Distribution of cycle latency between the first time a load is issued and its completion (Unspecified)
system.o3Cpu7.lsq0.loadToUse::160-169           15721      0.12%     74.83% # Distribution of cycle latency between the first time a load is issued and its completion (Unspecified)
system.o3Cpu7.lsq0.loadToUse::170-179           13623      0.11%     74.94% # Distribution of cycle latency between the first time a load is issued and its completion (Unspecified)
system.o3Cpu7.lsq0.loadToUse::180-189           15935      0.13%     75.06% # Distribution of cycle latency between the first time a load is issued and its completion (Unspecified)
system.o3Cpu7.lsq0.loadToUse::190-199           15524      0.12%     75.18% # Distribution of cycle latency between the first time a load is issued and its completion (Unspecified)
system.o3Cpu7.lsq0.loadToUse::200-209           19683      0.16%     75.34% # Distribution of cycle latency between the first time a load is issued and its completion (Unspecified)
system.o3Cpu7.lsq0.loadToUse::210-219           20449      0.16%     75.50% # Distribution of cycle latency between the first time a load is issued and its completion (Unspecified)
system.o3Cpu7.lsq0.loadToUse::220-229           15853      0.13%     75.63% # Distribution of cycle latency between the first time a load is issued and its completion (Unspecified)
system.o3Cpu7.lsq0.loadToUse::230-239           17438      0.14%     75.77% # Distribution of cycle latency between the first time a load is issued and its completion (Unspecified)
system.o3Cpu7.lsq0.loadToUse::240-249           17357      0.14%     75.91% # Distribution of cycle latency between the first time a load is issued and its completion (Unspecified)
system.o3Cpu7.lsq0.loadToUse::250-259           15097      0.12%     76.02% # Distribution of cycle latency between the first time a load is issued and its completion (Unspecified)
system.o3Cpu7.lsq0.loadToUse::260-269           14925      0.12%     76.14% # Distribution of cycle latency between the first time a load is issued and its completion (Unspecified)
system.o3Cpu7.lsq0.loadToUse::270-279           15905      0.13%     76.27% # Distribution of cycle latency between the first time a load is issued and its completion (Unspecified)
system.o3Cpu7.lsq0.loadToUse::280-289           16057      0.13%     76.40% # Distribution of cycle latency between the first time a load is issued and its completion (Unspecified)
system.o3Cpu7.lsq0.loadToUse::290-299           18729      0.15%     76.55% # Distribution of cycle latency between the first time a load is issued and its completion (Unspecified)
system.o3Cpu7.lsq0.loadToUse::overflows       2956068     23.45%    100.00% # Distribution of cycle latency between the first time a load is issued and its completion (Unspecified)
system.o3Cpu7.lsq0.loadToUse::min_value             2                       # Distribution of cycle latency between the first time a load is issued and its completion (Unspecified)
system.o3Cpu7.lsq0.loadToUse::max_value          5584                       # Distribution of cycle latency between the first time a load is issued and its completion (Unspecified)
system.o3Cpu7.lsq0.loadToUse::total          12603427                       # Distribution of cycle latency between the first time a load is issued and its completion (Unspecified)
system.o3Cpu7.mmu.dtb.rdAccesses             12654609                       # TLB accesses on read requests (Count)
system.o3Cpu7.mmu.dtb.wrAccesses              8782368                       # TLB accesses on write requests (Count)
system.o3Cpu7.mmu.dtb.rdMisses                   4615                       # TLB misses on read requests (Count)
system.o3Cpu7.mmu.dtb.wrMisses                   1489                       # TLB misses on write requests (Count)
system.o3Cpu7.mmu.dtb.walker.power_state.pwrStateResidencyTicks::UNDEFINED  50010833200                       # Cumulative time (in ticks) in various power states (Tick)
system.o3Cpu7.mmu.itb.rdAccesses                    0                       # TLB accesses on read requests (Count)
system.o3Cpu7.mmu.itb.wrAccesses              2894035                       # TLB accesses on write requests (Count)
system.o3Cpu7.mmu.itb.rdMisses                      0                       # TLB misses on read requests (Count)
system.o3Cpu7.mmu.itb.wrMisses                    197                       # TLB misses on write requests (Count)
system.o3Cpu7.mmu.itb.walker.power_state.pwrStateResidencyTicks::UNDEFINED  50010833200                       # Cumulative time (in ticks) in various power states (Tick)
system.o3Cpu7.power_state.numTransitions            6                       # Number of power state transitions (Count)
system.o3Cpu7.power_state.ticksClkGated::samples            3                       # Distribution of time spent in the clock gated state (Tick)
system.o3Cpu7.power_state.ticksClkGated::mean    177945400                       # Distribution of time spent in the clock gated state (Tick)
system.o3Cpu7.power_state.ticksClkGated::stdev 70168135.897429                       # Distribution of time spent in the clock gated state (Tick)
system.o3Cpu7.power_state.ticksClkGated::1000-5e+10            3    100.00%    100.00% # Distribution of time spent in the clock gated state (Tick)
system.o3Cpu7.power_state.ticksClkGated::min_value    118116200                       # Distribution of time spent in the clock gated state (Tick)
system.o3Cpu7.power_state.ticksClkGated::max_value    255177200                       # Distribution of time spent in the clock gated state (Tick)
system.o3Cpu7.power_state.ticksClkGated::total            3                       # Distribution of time spent in the clock gated state (Tick)
system.o3Cpu7.power_state.pwrStateResidencyTicks::ON  47825411800                       # Cumulative time (in ticks) in various power states (Tick)
system.o3Cpu7.power_state.pwrStateResidencyTicks::CLK_GATED    533836200                       # Cumulative time (in ticks) in various power states (Tick)
system.o3Cpu7.power_state.pwrStateResidencyTicks::OFF   1651585200                       # Cumulative time (in ticks) in various power states (Tick)
system.o3Cpu7.rename.squashCycles               13163                       # Number of cycles rename is squashing (Cycle)
system.o3Cpu7.rename.idleCycles               3141231                       # Number of cycles rename is idle (Cycle)
system.o3Cpu7.rename.blockCycles             52696747                       # Number of cycles rename is blocking (Cycle)
system.o3Cpu7.rename.serializeStallCycles       337419                       # count of cycles rename stalled for serializing inst (Cycle)
system.o3Cpu7.rename.runCycles                3310597                       # Number of cycles rename is running (Cycle)
system.o3Cpu7.rename.unblockCycles          162955754                       # Number of cycles rename is unblocking (Cycle)
system.o3Cpu7.rename.renamedInsts            63902246                       # Number of instructions processed by rename (Count)
system.o3Cpu7.rename.ROBFullEvents               9262                       # Number of times rename has blocked due to ROB full (Count)
system.o3Cpu7.rename.IQFullEvents             1704340                       # Number of times rename has blocked due to IQ full (Count)
system.o3Cpu7.rename.LQFullEvents            10330736                       # Number of times rename has blocked due to LQ full (Count)
system.o3Cpu7.rename.SQFullEvents           151372498                       # Number of times rename has blocked due to SQ full (Count)
system.o3Cpu7.rename.renamedOperands         83912927                       # Number of destination operands rename has renamed (Count)
system.o3Cpu7.rename.lookups                195067658                       # Number of register rename lookups that rename has made (Count)
system.o3Cpu7.rename.intLookups              48466182                       # Number of integer rename lookups (Count)
system.o3Cpu7.rename.fpLookups               52822827                       # Number of floating rename lookups (Count)
system.o3Cpu7.rename.committedMaps           83242319                       # Number of HB maps that are committed (Count)
system.o3Cpu7.rename.undoneMaps                670603                       # Number of HB maps that are undone due to squashing (Count)
system.o3Cpu7.rename.serializing                 2784                       # count of serializing insts renamed (Count)
system.o3Cpu7.rename.tempSerializing             2937                       # count of temporary serializing insts renamed (Count)
system.o3Cpu7.rename.skidInsts               32527233                       # count of insts added to the skid buffer (Count)
system.o3Cpu7.rob.reads                     285453213                       # The number of ROB reads (Count)
system.o3Cpu7.rob.writes                    127697270                       # The number of ROB writes (Count)
system.o3Cpu7.thread_0.numInsts              38202466                       # Number of Instructions committed (Count)
system.o3Cpu7.thread_0.numOps                63474987                       # Number of Ops committed (Count)
system.o3Cpu7.thread_0.numMemRefs                   0                       # Number of Memory References (Count)
system.pc.bad_addr.power_state.pwrStateResidencyTicks::UNDEFINED  50010833200                       # Cumulative time (in ticks) in various power states (Tick)
system.pc.com_1.power_state.pwrStateResidencyTicks::UNDEFINED  50010833200                       # Cumulative time (in ticks) in various power states (Tick)
system.pc.default_bus.power_state.pwrStateResidencyTicks::UNDEFINED  50010833200                       # Cumulative time (in ticks) in various power states (Tick)
system.pc.empty_isa.power_state.pwrStateResidencyTicks::UNDEFINED  50010833200                       # Cumulative time (in ticks) in various power states (Tick)
system.pc.fake_com_2.power_state.pwrStateResidencyTicks::UNDEFINED  50010833200                       # Cumulative time (in ticks) in various power states (Tick)
system.pc.fake_com_3.power_state.pwrStateResidencyTicks::UNDEFINED  50010833200                       # Cumulative time (in ticks) in various power states (Tick)
system.pc.fake_com_4.power_state.pwrStateResidencyTicks::UNDEFINED  50010833200                       # Cumulative time (in ticks) in various power states (Tick)
system.pc.fake_floppy.power_state.pwrStateResidencyTicks::UNDEFINED  50010833200                       # Cumulative time (in ticks) in various power states (Tick)
system.pc.pci_host.power_state.pwrStateResidencyTicks::UNDEFINED  50010833200                       # Cumulative time (in ticks) in various power states (Tick)
system.pc.south_bridge.cmos.power_state.pwrStateResidencyTicks::UNDEFINED  50010833200                       # Cumulative time (in ticks) in various power states (Tick)
system.pc.south_bridge.dma1.power_state.pwrStateResidencyTicks::UNDEFINED  50010833200                       # Cumulative time (in ticks) in various power states (Tick)
system.pc.south_bridge.ide.disks0.IdeDisk.dmaReadFullPages            0                       # Number of full page size DMA reads (not PRD). (Count)
system.pc.south_bridge.ide.disks0.IdeDisk.dmaReadBytes            0                       # Number of bytes transfered via DMA reads (not PRD). (Byte)
system.pc.south_bridge.ide.disks0.IdeDisk.dmaReadTxs            0                       # Number of DMA read transactions (not PRD). (Count)
system.pc.south_bridge.ide.disks0.IdeDisk.dmaWriteFullPages            0                       # Number of full page size DMA writes. (Count)
system.pc.south_bridge.ide.disks0.IdeDisk.dmaWriteBytes            0                       # Number of bytes transfered via DMA writes. (Byte)
system.pc.south_bridge.ide.disks0.IdeDisk.dmaWriteTxs            0                       # Number of DMA write transactions. (Count)
system.pc.south_bridge.ide.disks1.IdeDisk.dmaReadFullPages            0                       # Number of full page size DMA reads (not PRD). (Count)
system.pc.south_bridge.ide.disks1.IdeDisk.dmaReadBytes            0                       # Number of bytes transfered via DMA reads (not PRD). (Byte)
system.pc.south_bridge.ide.disks1.IdeDisk.dmaReadTxs            0                       # Number of DMA read transactions (not PRD). (Count)
system.pc.south_bridge.ide.disks1.IdeDisk.dmaWriteFullPages            0                       # Number of full page size DMA writes. (Count)
system.pc.south_bridge.ide.disks1.IdeDisk.dmaWriteBytes            0                       # Number of bytes transfered via DMA writes. (Byte)
system.pc.south_bridge.ide.disks1.IdeDisk.dmaWriteTxs            0                       # Number of DMA write transactions. (Count)
system.pc.south_bridge.ide.power_state.pwrStateResidencyTicks::UNDEFINED  50010833200                       # Cumulative time (in ticks) in various power states (Tick)
system.pc.south_bridge.io_apic.power_state.pwrStateResidencyTicks::UNDEFINED  50010833200                       # Cumulative time (in ticks) in various power states (Tick)
system.pc.south_bridge.keyboard.power_state.pwrStateResidencyTicks::UNDEFINED  50010833200                       # Cumulative time (in ticks) in various power states (Tick)
system.pc.south_bridge.pic1.power_state.pwrStateResidencyTicks::UNDEFINED  50010833200                       # Cumulative time (in ticks) in various power states (Tick)
system.pc.south_bridge.pic2.power_state.pwrStateResidencyTicks::UNDEFINED  50010833200                       # Cumulative time (in ticks) in various power states (Tick)
system.pc.south_bridge.pit.power_state.pwrStateResidencyTicks::UNDEFINED  50010833200                       # Cumulative time (in ticks) in various power states (Tick)
system.pc.south_bridge.speaker.power_state.pwrStateResidencyTicks::UNDEFINED  50010833200                       # Cumulative time (in ticks) in various power states (Tick)
system.workload.inst.arm                            0                       # number of arm instructions executed (Count)
system.workload.inst.quiesce                        0                       # number of quiesce instructions executed (Count)

---------- End Simulation Statistics   ----------
