
---------- Begin Simulation Statistics ----------
simSeconds                                   0.037121                       # Number of seconds simulated (Second)
simTicks                                  37120635840                       # Number of ticks simulated (Tick)
finalTick                                155095340657000                       # Number of ticks from beginning of simulation (restored from checkpoints and never reset) (Tick)
simFreq                                  1000000000000                       # The number of ticks per simulated second ((Tick/Second))
hostSeconds                                   7681.93                       # Real time elapsed on the host (Second)
hostTickRate                                  4832200                       # The number of ticks simulated per host second (ticks/s) ((Tick/Second))
hostMemory                                   19878508                       # Number of bytes of host memory used (Byte)
simInsts                                    182256690                       # Number of instructions simulated (Count)
simOps                                      368042026                       # Number of ops (including micro ops) simulated (Count)
hostInstRate                                    23725                       # Simulator instruction rate (inst/s) ((Count/Second))
hostOpRate                                      47910                       # Simulator op (including micro ops) rate (op/s) ((Count/Second))
system.caches.delayHistogram::bucket_size           16                       # delay histogram for all message (Unspecified)
system.caches.delayHistogram::max_bucket          159                       # delay histogram for all message (Unspecified)
system.caches.delayHistogram::samples        40115590                       # delay histogram for all message (Unspecified)
system.caches.delayHistogram::mean           0.304281                       # delay histogram for all message (Unspecified)
system.caches.delayHistogram::stdev          1.584560                       # delay histogram for all message (Unspecified)
system.caches.delayHistogram             |    40080789     99.91%     99.91% |       34063      0.08%    100.00% |         534      0.00%    100.00% |         115      0.00%    100.00% |          72      0.00%    100.00% |          10      0.00%    100.00% |           5      0.00%    100.00% |           2      0.00%    100.00% |           0      0.00%    100.00% |           0      0.00%    100.00% # delay histogram for all message (Unspecified)
system.caches.delayHistogram::total          40115590                       # delay histogram for all message (Unspecified)
system.caches.m_outstandReqHistSeqr::bucket_size            2                       (Unspecified)
system.caches.m_outstandReqHistSeqr::max_bucket           19                       (Unspecified)
system.caches.m_outstandReqHistSeqr::samples    115150126                       (Unspecified)
system.caches.m_outstandReqHistSeqr::mean     4.840661                       (Unspecified)
system.caches.m_outstandReqHistSeqr::gmean     3.773483                       (Unspecified)
system.caches.m_outstandReqHistSeqr::stdev     3.022754                       (Unspecified)
system.caches.m_outstandReqHistSeqr      |    18788504     16.32%     16.32% |    30270266     26.29%     42.60% |    22530455     19.57%     62.17% |    16435373     14.27%     76.44% |    19896012     17.28%     93.72% |     6454585      5.61%     99.33% |      648403      0.56%     99.89% |       89270      0.08%     99.97% |       37258      0.03%    100.00% |           0      0.00%    100.00% (Unspecified)
system.caches.m_outstandReqHistSeqr::total    115150126                       (Unspecified)
system.caches.m_latencyHistSeqr::bucket_size          512                       (Unspecified)
system.caches.m_latencyHistSeqr::max_bucket         5119                       (Unspecified)
system.caches.m_latencyHistSeqr::samples    115175199                       (Unspecified)
system.caches.m_latencyHistSeqr::mean       28.731047                       (Unspecified)
system.caches.m_latencyHistSeqr::gmean       1.377786                       (Unspecified)
system.caches.m_latencyHistSeqr::stdev     137.890143                       (Unspecified)
system.caches.m_latencyHistSeqr          |   113027168     98.13%     98.13% |     1940937      1.69%     99.82% |      118810      0.10%     99.92% |        7149      0.01%     99.93% |       55071      0.05%     99.98% |       24683      0.02%    100.00% |        1341      0.00%    100.00% |          39      0.00%    100.00% |           1      0.00%    100.00% |           0      0.00%    100.00% (Unspecified)
system.caches.m_latencyHistSeqr::total      115175199                       (Unspecified)
system.caches.m_hitLatencyHistSeqr::bucket_size          512                       (Unspecified)
system.caches.m_hitLatencyHistSeqr::max_bucket         5119                       (Unspecified)
system.caches.m_hitLatencyHistSeqr::samples    109413260                       (Unspecified)
system.caches.m_hitLatencyHistSeqr::mean     1.018281                       (Unspecified)
system.caches.m_hitLatencyHistSeqr::gmean     1.009952                       (Unspecified)
system.caches.m_hitLatencyHistSeqr::stdev     2.052062                       (Unspecified)
system.caches.m_hitLatencyHistSeqr       |   109412924    100.00%    100.00% |         237      0.00%    100.00% |          50      0.00%    100.00% |          35      0.00%    100.00% |           6      0.00%    100.00% |           2      0.00%    100.00% |           6      0.00%    100.00% |           0      0.00%    100.00% |           0      0.00%    100.00% |           0      0.00%    100.00% (Unspecified)
system.caches.m_hitLatencyHistSeqr::total    109413260                       (Unspecified)
system.caches.m_missLatencyHistSeqr::bucket_size          512                       (Unspecified)
system.caches.m_missLatencyHistSeqr::max_bucket         5119                       (Unspecified)
system.caches.m_missLatencyHistSeqr::samples      5761939                       (Unspecified)
system.caches.m_missLatencyHistSeqr::mean   554.967799                       (Unspecified)
system.caches.m_missLatencyHistSeqr::gmean   501.682485                       (Unspecified)
system.caches.m_missLatencyHistSeqr::stdev   297.448279                       (Unspecified)
system.caches.m_missLatencyHistSeqr      |     3614244     62.73%     62.73% |     1940700     33.68%     96.41% |      118760      2.06%     98.47% |        7114      0.12%     98.59% |       55065      0.96%     99.55% |       24681      0.43%     99.98% |        1335      0.02%    100.00% |          39      0.00%    100.00% |           1      0.00%    100.00% |           0      0.00%    100.00% (Unspecified)
system.caches.m_missLatencyHistSeqr::total      5761939                       (Unspecified)
system.caches.delayVCHist.vnet_0::bucket_size           16                       # delay histogram for vnet_0 (Unspecified)
system.caches.delayVCHist.vnet_0::max_bucket          159                       # delay histogram for vnet_0 (Unspecified)
system.caches.delayVCHist.vnet_0::samples     17044387                       # delay histogram for vnet_0 (Unspecified)
system.caches.delayVCHist.vnet_0::mean       0.685462                       # delay histogram for vnet_0 (Unspecified)
system.caches.delayVCHist.vnet_0::stdev      2.344727                       # delay histogram for vnet_0 (Unspecified)
system.caches.delayVCHist.vnet_0         |    17010028     99.80%     99.80% |       33657      0.20%    100.00% |         499      0.00%    100.00% |         114      0.00%    100.00% |          72      0.00%    100.00% |          10      0.00%    100.00% |           5      0.00%    100.00% |           2      0.00%    100.00% |           0      0.00%    100.00% |           0      0.00%    100.00% # delay histogram for vnet_0 (Unspecified)
system.caches.delayVCHist.vnet_0::total      17044387                       # delay histogram for vnet_0 (Unspecified)
system.caches.delayVCHist.vnet_1::bucket_size            8                       # delay histogram for vnet_1 (Unspecified)
system.caches.delayVCHist.vnet_1::max_bucket           79                       # delay histogram for vnet_1 (Unspecified)
system.caches.delayVCHist.vnet_1::samples     22907131                       # delay histogram for vnet_1 (Unspecified)
system.caches.delayVCHist.vnet_1::mean       0.022836                       # delay histogram for vnet_1 (Unspecified)
system.caches.delayVCHist.vnet_1::stdev      0.344044                       # delay histogram for vnet_1 (Unspecified)
system.caches.delayVCHist.vnet_1         |    22901624     99.98%     99.98% |        5065      0.02%    100.00% |         360      0.00%    100.00% |          46      0.00%    100.00% |          26      0.00%    100.00% |           9      0.00%    100.00% |           1      0.00%    100.00% |           0      0.00%    100.00% |           0      0.00%    100.00% |           0      0.00%    100.00% # delay histogram for vnet_1 (Unspecified)
system.caches.delayVCHist.vnet_1::total      22907131                       # delay histogram for vnet_1 (Unspecified)
system.caches.delayVCHist.vnet_2::bucket_size            1                       # delay histogram for vnet_2 (Unspecified)
system.caches.delayVCHist.vnet_2::max_bucket            9                       # delay histogram for vnet_2 (Unspecified)
system.caches.delayVCHist.vnet_2::samples       164072                       # delay histogram for vnet_2 (Unspecified)
system.caches.delayVCHist.vnet_2::mean       0.000354                       # delay histogram for vnet_2 (Unspecified)
system.caches.delayVCHist.vnet_2::stdev      0.028362                       # delay histogram for vnet_2 (Unspecified)
system.caches.delayVCHist.vnet_2         |      164045     99.98%     99.98% |           0      0.00%     99.98% |          25      0.02%    100.00% |           0      0.00%    100.00% |           2      0.00%    100.00% |           0      0.00%    100.00% |           0      0.00%    100.00% |           0      0.00%    100.00% |           0      0.00%    100.00% |           0      0.00%    100.00% # delay histogram for vnet_2 (Unspecified)
system.caches.delayVCHist.vnet_2::total        164072                       # delay histogram for vnet_2 (Unspecified)
system.caches.L1Cache_Controller.Load    |     8644299     12.46%     12.46% |     8668583     12.50%     24.96% |     8652369     12.47%     37.43% |     8723611     12.58%     50.01% |     8650012     12.47%     62.48% |     8617833     12.42%     74.90% |     8717703     12.57%     87.47% |     8690543     12.53%    100.00% (Unspecified)
system.caches.L1Cache_Controller.Load::total     69364953                       (Unspecified)
system.caches.L1Cache_Controller.Ifetch  |     2288942     12.45%     12.45% |     2293261     12.48%     24.93% |     2291509     12.47%     37.40% |     2314695     12.59%     49.99% |     2292313     12.47%     62.47% |     2290432     12.46%     74.93% |     2307600     12.56%     87.49% |     2300007     12.51%    100.00% (Unspecified)
system.caches.L1Cache_Controller.Ifetch::total     18378759                       (Unspecified)
system.caches.L1Cache_Controller.Store   |     3418495     12.46%     12.46% |     3423618     12.48%     24.94% |     3420418     12.47%     37.41% |     3454956     12.59%     50.01% |     3420939     12.47%     62.48% |     3417806     12.46%     74.94% |     3443592     12.55%     87.49% |     3431681     12.51%    100.00% (Unspecified)
system.caches.L1Cache_Controller.Store::total     27431505                       (Unspecified)
system.caches.L1Cache_Controller.Inv     |       18439     11.33%     11.33% |       19865     12.21%     23.54% |       29557     18.16%     41.70% |       20085     12.34%     54.04% |       19163     11.78%     65.82% |       18397     11.30%     77.12% |       18101     11.12%     88.25% |       19127     11.75%    100.00% (Unspecified)
system.caches.L1Cache_Controller.Inv::total       162734                       (Unspecified)
system.caches.L1Cache_Controller.L1_Replacement |      707461     12.48%     12.48% |      707337     12.47%     24.95% |      707092     12.47%     37.42% |      714025     12.59%     50.01% |      706988     12.47%     62.48% |      706751     12.46%     74.94% |      712008     12.56%     87.49% |      709201     12.51%    100.00% (Unspecified)
system.caches.L1Cache_Controller.L1_Replacement::total      5670863                       (Unspecified)
system.caches.L1Cache_Controller.Fwd_GETX |           0      0.00%      0.00% |           6    100.00%    100.00% |           0      0.00%    100.00% |           0      0.00%    100.00% |           0      0.00%    100.00% |           0      0.00%    100.00% |           0      0.00%    100.00% |           0      0.00%    100.00% (Unspecified)
system.caches.L1Cache_Controller.Fwd_GETX::total            6                       (Unspecified)
system.caches.L1Cache_Controller.Fwd_GETS |         843     63.29%     63.29% |         236     17.72%     81.01% |          65      4.88%     85.89% |          33      2.48%     88.36% |          40      3.00%     91.37% |          22      1.65%     93.02% |          24      1.80%     94.82% |          69      5.18%    100.00% (Unspecified)
system.caches.L1Cache_Controller.Fwd_GETS::total         1332                       (Unspecified)
system.caches.L1Cache_Controller.Data    |          49    100.00%    100.00% |           0      0.00%    100.00% |           0      0.00%    100.00% |           0      0.00%    100.00% |           0      0.00%    100.00% |           0      0.00%    100.00% |           0      0.00%    100.00% |           0      0.00%    100.00% (Unspecified)
system.caches.L1Cache_Controller.Data::total           49                       (Unspecified)
system.caches.L1Cache_Controller.Data_Exclusive |      565605     12.46%     12.46% |      566714     12.49%     24.95% |      566092     12.47%     37.42% |      571902     12.60%     50.02% |      565662     12.46%     62.48% |      565758     12.46%     74.94% |      569669     12.55%     87.49% |      567646     12.51%    100.00% (Unspecified)
system.caches.L1Cache_Controller.Data_Exclusive::total      4539048                       (Unspecified)
system.caches.L1Cache_Controller.DataS_fromL1 |          45      3.38%      3.38% |         638     47.90%     51.28% |         321     24.10%     75.38% |         118      8.86%     84.23% |          97      7.28%     91.52% |          51      3.83%     95.35% |          32      2.40%     97.75% |          30      2.25%    100.00% (Unspecified)
system.caches.L1Cache_Controller.DataS_fromL1::total         1332                       (Unspecified)
system.caches.L1Cache_Controller.Data_all_Acks |      153309     12.55%     12.55% |      151556     12.41%     24.96% |      152027     12.45%     37.41% |      153348     12.56%     49.97% |      152519     12.49%     62.46% |      152204     12.46%     74.92% |      153578     12.58%     87.49% |      152742     12.51%    100.00% (Unspecified)
system.caches.L1Cache_Controller.Data_all_Acks::total      1221283                       (Unspecified)
system.caches.L1Cache_Controller.Ack     |         772    100.00%    100.00% |           0      0.00%    100.00% |           0      0.00%    100.00% |           0      0.00%    100.00% |           0      0.00%    100.00% |           0      0.00%    100.00% |           0      0.00%    100.00% |           0      0.00%    100.00% (Unspecified)
system.caches.L1Cache_Controller.Ack::total          772                       (Unspecified)
system.caches.L1Cache_Controller.Ack_all |         276    100.00%    100.00% |           0      0.00%    100.00% |           0      0.00%    100.00% |           0      0.00%    100.00% |           0      0.00%    100.00% |           0      0.00%    100.00% |           0      0.00%    100.00% |           0      0.00%    100.00% (Unspecified)
system.caches.L1Cache_Controller.Ack_all::total          276                       (Unspecified)
system.caches.L1Cache_Controller.WB_Ack  |      699326     12.51%     12.51% |      697817     12.48%     25.00% |      687666     12.30%     37.30% |      704126     12.60%     49.89% |      698080     12.49%     62.38% |      698407     12.49%     74.88% |      704049     12.60%     87.47% |      700153     12.53%    100.00% (Unspecified)
system.caches.L1Cache_Controller.WB_Ack::total      5589624                       (Unspecified)
system.caches.L1Cache_Controller.NP.Load |      564756     12.46%     12.46% |      565703     12.48%     24.93% |      565491     12.47%     37.40% |      570975     12.59%     50.00% |      565297     12.47%     62.47% |      565238     12.47%     74.93% |      569463     12.56%     87.49% |      567101     12.51%    100.00% (Unspecified)
system.caches.L1Cache_Controller.NP.Load::total      4534024                       (Unspecified)
system.caches.L1Cache_Controller.NP.Ifetch |        1939     19.21%     19.21% |        1066     10.56%     29.78% |        1177     11.66%     41.44% |        1188     11.77%     53.21% |        1176     11.65%     64.86% |        1177     11.66%     76.53% |        1183     11.72%     88.25% |        1186     11.75%    100.00% (Unspecified)
system.caches.L1Cache_Controller.NP.Ifetch::total        10092                       (Unspecified)
system.caches.L1Cache_Controller.NP.Store |      140967     12.48%     12.48% |      140917     12.48%     24.97% |      140759     12.47%     37.43% |      142181     12.59%     50.02% |      140773     12.47%     62.49% |      140634     12.46%     74.95% |      141645     12.54%     87.49% |      141221     12.51%    100.00% (Unspecified)
system.caches.L1Cache_Controller.NP.Store::total      1129097                       (Unspecified)
system.caches.L1Cache_Controller.NP.Inv  |        2453     13.49%     13.49% |        2235     12.29%     25.78% |        2255     12.40%     38.18% |        2174     11.96%     50.14% |        2274     12.51%     62.65% |        2290     12.59%     75.24% |        2297     12.63%     87.87% |        2205     12.13%    100.00% (Unspecified)
system.caches.L1Cache_Controller.NP.Inv::total        18183                       (Unspecified)
system.caches.L1Cache_Controller.I.Load  |        3093     11.45%     11.45% |        3744     13.86%     25.30% |        3501     12.96%     38.26% |        3801     14.07%     52.33% |        3241     12.00%     64.33% |        3370     12.47%     76.80% |        3027     11.20%     88.00% |        3242     12.00%    100.00% (Unspecified)
system.caches.L1Cache_Controller.I.Load::total        27019                       (Unspecified)
system.caches.L1Cache_Controller.I.Ifetch |        5435     14.16%     14.16% |        4735     12.33%     26.49% |        4662     12.14%     38.63% |        4691     12.22%     50.85% |        4700     12.24%     63.09% |        4717     12.29%     75.38% |        4732     12.33%     87.70% |        4721     12.30%    100.00% (Unspecified)
system.caches.L1Cache_Controller.I.Ifetch::total        38393                       (Unspecified)
system.caches.L1Cache_Controller.I.Store |        2821     12.21%     12.21% |        2745     11.88%     24.09% |        2853     12.35%     36.44% |        2534     10.97%     47.41% |        3092     13.38%     60.79% |        2879     12.46%     73.25% |        3231     13.98%     87.23% |        2950     12.77%    100.00% (Unspecified)
system.caches.L1Cache_Controller.I.Store::total        23105                       (Unspecified)
system.caches.L1Cache_Controller.I.L1_Replacement |        4282      7.98%      7.98% |        6139     11.45%     19.43% |       16004     29.84%     49.27% |        6597     12.30%     61.57% |        5495     10.24%     71.81% |        4900      9.14%     80.95% |        4517      8.42%     89.37% |        5703     10.63%    100.00% (Unspecified)
system.caches.L1Cache_Controller.I.L1_Replacement::total        53637                       (Unspecified)
system.caches.L1Cache_Controller.S.Load  |       17589      7.02%      7.02% |       50278     20.07%     27.10% |       47208     18.85%     45.94% |       42042     16.78%     62.73% |       33203     13.26%     75.98% |       21903      8.74%     84.73% |       19482      7.78%     92.51% |       18772      7.49%    100.00% (Unspecified)
system.caches.L1Cache_Controller.S.Load::total       250477                       (Unspecified)
system.caches.L1Cache_Controller.S.Ifetch |     2281568     12.45%     12.45% |     2287460     12.48%     24.93% |     2285670     12.47%     37.40% |     2308816     12.60%     49.99% |     2286437     12.47%     62.46% |     2284538     12.46%     74.93% |     2301685     12.56%     87.48% |     2294100     12.52%    100.00% (Unspecified)
system.caches.L1Cache_Controller.S.Ifetch::total     18330274                       (Unspecified)
system.caches.L1Cache_Controller.S.Store |         227    100.00%    100.00% |           0      0.00%    100.00% |           0      0.00%    100.00% |           0      0.00%    100.00% |           0      0.00%    100.00% |           0      0.00%    100.00% |           0      0.00%    100.00% |           0      0.00%    100.00% (Unspecified)
system.caches.L1Cache_Controller.S.Store::total          227                       (Unspecified)
system.caches.L1Cache_Controller.S.Inv   |        6198     14.09%     14.09% |        5423     12.33%     26.43% |        5383     12.24%     38.67% |        5503     12.51%     51.18% |        5403     12.29%     63.47% |        5360     12.19%     75.66% |        5341     12.15%     87.80% |        5364     12.20%    100.00% (Unspecified)
system.caches.L1Cache_Controller.S.Inv::total        43975                       (Unspecified)
system.caches.L1Cache_Controller.S.L1_Replacement |        3853     13.96%     13.96% |        3381     12.25%     26.21% |        3422     12.40%     38.61% |        3302     11.96%     50.57% |        3413     12.37%     62.94% |        3444     12.48%     75.41% |        3441     12.47%     87.88% |        3345     12.12%    100.00% (Unspecified)
system.caches.L1Cache_Controller.S.L1_Replacement::total        27601                       (Unspecified)
system.caches.L1Cache_Controller.E.Load  |     5447968     12.48%     12.48% |     5438961     12.46%     24.95% |     5437100     12.46%     37.40% |     5476476     12.55%     49.95% |     5431446     12.45%     62.40% |     5434981     12.45%     74.85% |     5494601     12.59%     87.44% |     5480611     12.56%    100.00% (Unspecified)
system.caches.L1Cache_Controller.E.Load::total     43642144                       (Unspecified)
system.caches.L1Cache_Controller.E.Store |        3508     13.29%     13.29% |        3409     12.91%     26.20% |        3300     12.50%     38.70% |        3631     13.75%     52.46% |        3063     11.60%     64.06% |        3271     12.39%     76.45% |        2981     11.29%     87.74% |        3236     12.26%    100.00% (Unspecified)
system.caches.L1Cache_Controller.E.Store::total        26399                       (Unspecified)
system.caches.L1Cache_Controller.E.Inv   |        2821      7.75%      7.75% |        5056     13.90%     21.65% |        6320     17.37%     39.02% |        5030     13.83%     52.85% |        4506     12.38%     65.23% |        4069     11.18%     76.41% |        3705     10.18%     86.60% |        4876     13.40%    100.00% (Unspecified)
system.caches.L1Cache_Controller.E.Inv::total        36383                       (Unspecified)
system.caches.L1Cache_Controller.E.L1_Replacement |      552746     12.37%     12.37% |      557944     12.48%     24.85% |      556403     12.45%     37.30% |      563155     12.60%     49.90% |      558087     12.49%     62.39% |      558396     12.49%     74.88% |      562971     12.60%     87.48% |      559510     12.52%    100.00% (Unspecified)
system.caches.L1Cache_Controller.E.L1_Replacement::total      4469212                       (Unspecified)
system.caches.L1Cache_Controller.E.Fwd_GETX |           0      0.00%      0.00% |           6    100.00%    100.00% |           0      0.00%    100.00% |           0      0.00%    100.00% |           0      0.00%    100.00% |           0      0.00%    100.00% |           0      0.00%    100.00% |           0      0.00%    100.00% (Unspecified)
system.caches.L1Cache_Controller.E.Fwd_GETX::total            6                       (Unspecified)
system.caches.L1Cache_Controller.E.Fwd_GETS |         491     50.10%     50.10% |         236     24.08%     74.18% |          65      6.63%     80.82% |          33      3.37%     84.18% |          40      4.08%     88.27% |          22      2.24%     90.51% |          24      2.45%     92.96% |          69      7.04%    100.00% (Unspecified)
system.caches.L1Cache_Controller.E.Fwd_GETS::total          980                       (Unspecified)
system.caches.L1Cache_Controller.M.Load  |     2610893     12.49%     12.49% |     2609897     12.48%     24.97% |     2599069     12.43%     37.40% |     2630317     12.58%     49.97% |     2616825     12.51%     62.49% |     2592341     12.40%     74.88% |     2631130     12.58%     87.47% |     2620817     12.53%    100.00% (Unspecified)
system.caches.L1Cache_Controller.M.Load::total     20911289                       (Unspecified)
system.caches.L1Cache_Controller.M.Store |     3270972     12.46%     12.46% |     3276547     12.48%     24.94% |     3273506     12.47%     37.41% |     3306610     12.60%     50.00% |     3274011     12.47%     62.48% |     3271022     12.46%     74.94% |     3295735     12.55%     87.49% |     3284274     12.51%    100.00% (Unspecified)
system.caches.L1Cache_Controller.M.Store::total     26252677                       (Unspecified)
system.caches.L1Cache_Controller.M.Inv   |        6967     10.87%     10.87% |        7137     11.14%     22.01% |       15567     24.29%     46.30% |        7347     11.46%     57.76% |        6963     10.87%     68.63% |        6669     10.41%     79.04% |        6755     10.54%     89.58% |        6680     10.42%    100.00% (Unspecified)
system.caches.L1Cache_Controller.M.Inv::total        64085                       (Unspecified)
system.caches.L1Cache_Controller.M.L1_Replacement |      146580     13.08%     13.08% |      139873     12.48%     25.57% |      131263     11.72%     37.28% |      140971     12.58%     49.86% |      139993     12.49%     62.36% |      140011     12.50%     74.86% |      141079     12.59%     87.45% |      140643     12.55%    100.00% (Unspecified)
system.caches.L1Cache_Controller.M.L1_Replacement::total      1120413                       (Unspecified)
system.caches.L1Cache_Controller.M.Fwd_GETS |         352    100.00%    100.00% |           0      0.00%    100.00% |           0      0.00%    100.00% |           0      0.00%    100.00% |           0      0.00%    100.00% |           0      0.00%    100.00% |           0      0.00%    100.00% |           0      0.00%    100.00% (Unspecified)
system.caches.L1Cache_Controller.M.Fwd_GETS::total          352                       (Unspecified)
system.caches.L1Cache_Controller.IS.Inv  |           0      0.00%      0.00% |          14     13.33%     13.33% |          32     30.48%     43.81% |          30     28.57%     72.38% |          17     16.19%     88.57% |           8      7.62%     96.19% |           2      1.90%     98.10% |           2      1.90%    100.00% (Unspecified)
system.caches.L1Cache_Controller.IS.Inv::total          105                       (Unspecified)
system.caches.L1Cache_Controller.IS.Data_Exclusive |      565605     12.46%     12.46% |      566714     12.49%     24.95% |      566092     12.47%     37.42% |      571902     12.60%     50.02% |      565662     12.46%     62.48% |      565758     12.46%     74.94% |      569669     12.55%     87.49% |      567646     12.51%    100.00% (Unspecified)
system.caches.L1Cache_Controller.IS.Data_Exclusive::total      4539048                       (Unspecified)
system.caches.L1Cache_Controller.IS.DataS_fromL1 |          45      3.38%      3.38% |         638     47.90%     51.28% |         321     24.10%     75.38% |         118      8.86%     84.23% |          97      7.28%     91.52% |          51      3.83%     95.35% |          32      2.40%     97.75% |          30      2.25%    100.00% (Unspecified)
system.caches.L1Cache_Controller.IS.DataS_fromL1::total         1332                       (Unspecified)
system.caches.L1Cache_Controller.IS.Data_all_Acks |        9570     13.86%     13.86% |        7881     11.42%     25.28% |        8383     12.14%     37.42% |        8604     12.46%     49.89% |        8637     12.51%     62.40% |        8684     12.58%     74.98% |        8701     12.60%     87.59% |        8569     12.41%    100.00% (Unspecified)
system.caches.L1Cache_Controller.IS.Data_all_Acks::total        69029                       (Unspecified)
system.caches.L1Cache_Controller.IM.Data |          49    100.00%    100.00% |           0      0.00%    100.00% |           0      0.00%    100.00% |           0      0.00%    100.00% |           0      0.00%    100.00% |           0      0.00%    100.00% |           0      0.00%    100.00% |           0      0.00%    100.00% (Unspecified)
system.caches.L1Cache_Controller.IM.Data::total           49                       (Unspecified)
system.caches.L1Cache_Controller.IM.Data_all_Acks |      143739     12.48%     12.48% |      143661     12.47%     24.94% |      143612     12.46%     37.41% |      144714     12.56%     49.97% |      143865     12.49%     62.46% |      143512     12.46%     74.91% |      144875     12.57%     87.49% |      144171     12.51%    100.00% (Unspecified)
system.caches.L1Cache_Controller.IM.Data_all_Acks::total      1152149                       (Unspecified)
system.caches.L1Cache_Controller.SM.Ack  |         772    100.00%    100.00% |           0      0.00%    100.00% |           0      0.00%    100.00% |           0      0.00%    100.00% |           0      0.00%    100.00% |           0      0.00%    100.00% |           0      0.00%    100.00% |           0      0.00%    100.00% (Unspecified)
system.caches.L1Cache_Controller.SM.Ack::total          772                       (Unspecified)
system.caches.L1Cache_Controller.SM.Ack_all |         276    100.00%    100.00% |           0      0.00%    100.00% |           0      0.00%    100.00% |           0      0.00%    100.00% |           0      0.00%    100.00% |           0      0.00%    100.00% |           0      0.00%    100.00% |           0      0.00%    100.00% (Unspecified)
system.caches.L1Cache_Controller.SM.Ack_all::total          276                       (Unspecified)
system.caches.L1Cache_Controller.IS_I.Data_all_Acks |           0      0.00%      0.00% |          14     13.33%     13.33% |          32     30.48%     43.81% |          30     28.57%     72.38% |          17     16.19%     88.57% |           8      7.62%     96.19% |           2      1.90%     98.10% |           2      1.90%    100.00% (Unspecified)
system.caches.L1Cache_Controller.IS_I.Data_all_Acks::total          105                       (Unspecified)
system.caches.L1Cache_Controller.M_I.Inv |           0      0.00%      0.00% |           0      0.00%      0.00% |           0      0.00%      0.00% |           1     33.33%     33.33% |           0      0.00%     33.33% |           1     33.33%     66.67% |           1     33.33%    100.00% |           0      0.00%    100.00% (Unspecified)
system.caches.L1Cache_Controller.M_I.Inv::total            3                       (Unspecified)
system.caches.L1Cache_Controller.M_I.WB_Ack |      699326     12.51%     12.51% |      697817     12.48%     25.00% |      687666     12.30%     37.30% |      704125     12.60%     49.89% |      698080     12.49%     62.38% |      698406     12.49%     74.88% |      704048     12.60%     87.47% |      700153     12.53%    100.00% (Unspecified)
system.caches.L1Cache_Controller.M_I.WB_Ack::total      5589621                       (Unspecified)
system.caches.L1Cache_Controller.SINK_WB_ACK.WB_Ack |           0      0.00%      0.00% |           0      0.00%      0.00% |           0      0.00%      0.00% |           1     33.33%     33.33% |           0      0.00%     33.33% |           1     33.33%     66.67% |           1     33.33%    100.00% |           0      0.00%    100.00% (Unspecified)
system.caches.L1Cache_Controller.SINK_WB_ACK.WB_Ack::total            3                       (Unspecified)
system.caches.Directory_Controller.Fetch |        7621      0.13%      0.13% |     5688138     99.87%    100.00% (Unspecified)
system.caches.Directory_Controller.Fetch::total      5695759                       (Unspecified)
system.caches.Directory_Controller.Data  |         527      0.04%      0.04% |     1230345     99.96%    100.00% (Unspecified)
system.caches.Directory_Controller.Data::total      1230872                       (Unspecified)
system.caches.Directory_Controller.Memory_Data |        7621      0.13%      0.13% |     5688123     99.87%    100.00% (Unspecified)
system.caches.Directory_Controller.Memory_Data::total      5695744                       (Unspecified)
system.caches.Directory_Controller.Memory_Ack |         527      0.04%      0.04% |     1230344     99.96%    100.00% (Unspecified)
system.caches.Directory_Controller.Memory_Ack::total      1230871                       (Unspecified)
system.caches.Directory_Controller.CleanReplacement |        7123      0.16%      0.16% |     4457764     99.84%    100.00% (Unspecified)
system.caches.Directory_Controller.CleanReplacement::total      4464887                       (Unspecified)
system.caches.Directory_Controller.I.Fetch |        7621      0.13%      0.13% |     5688138     99.87%    100.00% (Unspecified)
system.caches.Directory_Controller.I.Fetch::total      5695759                       (Unspecified)
system.caches.Directory_Controller.M.Data |         527      0.04%      0.04% |     1230345     99.96%    100.00% (Unspecified)
system.caches.Directory_Controller.M.Data::total      1230872                       (Unspecified)
system.caches.Directory_Controller.M.CleanReplacement |        7123      0.16%      0.16% |     4457764     99.84%    100.00% (Unspecified)
system.caches.Directory_Controller.M.CleanReplacement::total      4464887                       (Unspecified)
system.caches.Directory_Controller.IM.Memory_Data |        7621      0.13%      0.13% |     5688123     99.87%    100.00% (Unspecified)
system.caches.Directory_Controller.IM.Memory_Data::total      5695744                       (Unspecified)
system.caches.Directory_Controller.MI.Memory_Ack |         527      0.04%      0.04% |     1230344     99.96%    100.00% (Unspecified)
system.caches.Directory_Controller.MI.Memory_Ack::total      1230871                       (Unspecified)
system.caches.L2Cache_Controller.L1_GET_INSTR |        6325     13.03%     13.03% |        7054     14.54%     27.57% |        5971     12.30%     39.87% |        4283      8.83%     48.70% |        6479     13.35%     62.05% |        6781     13.97%     76.02% |        5956     12.27%     88.30% |        5679     11.70%    100.00% (Unspecified)
system.caches.L2Cache_Controller.L1_GET_INSTR::total        48528                       (Unspecified)
system.caches.L2Cache_Controller.L1_GETS |      572876     12.56%     12.56% |      571184     12.52%     25.08% |      570228     12.50%     37.58% |      569310     12.48%     50.06% |      569567     12.48%     62.54% |      568404     12.46%     75.00% |      569736     12.49%     87.49% |      570810     12.51%    100.00% (Unspecified)
system.caches.L2Cache_Controller.L1_GETS::total      4562115                       (Unspecified)
system.caches.L2Cache_Controller.L1_GETX |      144428     12.53%     12.53% |      144134     12.51%     25.04% |      143091     12.42%     37.46% |      143694     12.47%     49.93% |      143591     12.46%     62.39% |      144712     12.56%     74.95% |      144290     12.52%     87.47% |      144379     12.53%    100.00% (Unspecified)
system.caches.L2Cache_Controller.L1_GETX::total      1152319                       (Unspecified)
system.caches.L2Cache_Controller.L1_UPGRADE |           0      0.00%      0.00% |          25      8.25%      8.25% |           0      0.00%      8.25% |           0      0.00%      8.25% |           0      0.00%      8.25% |           0      0.00%      8.25% |         278     91.75%    100.00% |           0      0.00%    100.00% (Unspecified)
system.caches.L2Cache_Controller.L1_UPGRADE::total          303                       (Unspecified)
system.caches.L2Cache_Controller.L1_PUTX |      699274     12.51%     12.51% |      699216     12.51%     25.02% |      697463     12.48%     37.50% |      698118     12.49%     49.99% |      698292     12.49%     62.48% |      699184     12.51%     74.99% |      698829     12.50%     87.49% |      699246     12.51%    100.00% (Unspecified)
system.caches.L2Cache_Controller.L1_PUTX::total      5589622                       (Unspecified)
system.caches.L2Cache_Controller.L1_PUTX_old |           0      0.00%      0.00% |           2     33.33%     33.33% |           0      0.00%     33.33% |           0      0.00%     33.33% |           0      0.00%     33.33% |           0      0.00%     33.33% |           2     33.33%     66.67% |           2     33.33%    100.00% (Unspecified)
system.caches.L2Cache_Controller.L1_PUTX_old::total            6                       (Unspecified)
system.caches.L2Cache_Controller.L2_Replacement |      146324     12.54%     12.54% |      145798     12.49%     25.03% |      144871     12.41%     37.45% |      145600     12.48%     49.93% |      145323     12.45%     62.38% |      146651     12.57%     74.95% |      145895     12.50%     87.45% |      146474     12.55%    100.00% (Unspecified)
system.caches.L2Cache_Controller.L2_Replacement::total      1166936                       (Unspecified)
system.caches.L2Cache_Controller.L2_Replacement_clean |      566378     12.51%     12.51% |      566947     12.52%     25.02% |      565894     12.50%     37.52% |      565698     12.49%     50.01% |      566317     12.50%     62.52% |      565672     12.49%     75.01% |      565797     12.49%     87.50% |      566122     12.50%    100.00% (Unspecified)
system.caches.L2Cache_Controller.L2_Replacement_clean::total      4528825                       (Unspecified)
system.caches.L2Cache_Controller.Mem_Data |      712699     12.51%     12.51% |      712744     12.51%     25.03% |      710765     12.48%     37.51% |      711296     12.49%     49.99% |      711640     12.49%     62.49% |      712317     12.51%     74.99% |      711688     12.50%     87.49% |      712595     12.51%    100.00% (Unspecified)
system.caches.L2Cache_Controller.Mem_Data::total      5695744                       (Unspecified)
system.caches.L2Cache_Controller.Mem_Ack |      712702     12.51%     12.51% |      712745     12.51%     25.03% |      710765     12.48%     37.51% |      711298     12.49%     49.99% |      711640     12.49%     62.49% |      712321     12.51%     74.99% |      711691     12.50%     87.49% |      712596     12.51%    100.00% (Unspecified)
system.caches.L2Cache_Controller.Mem_Ack::total      5695758                       (Unspecified)
system.caches.L2Cache_Controller.WB_Data |        8152     12.65%     12.65% |        8140     12.63%     25.28% |        7758     12.04%     37.32% |        7863     12.20%     49.53% |        7819     12.13%     61.66% |        7907     12.27%     73.93% |        8380     13.00%     86.94% |        8418     13.06%    100.00% (Unspecified)
system.caches.L2Cache_Controller.WB_Data::total        64437                       (Unspecified)
system.caches.L2Cache_Controller.WB_Data_clean |         233     23.70%     23.70% |         143     14.55%     38.25% |         137     13.94%     52.19% |         102     10.38%     62.56% |          96      9.77%     72.33% |          44      4.48%     76.81% |          90      9.16%     85.96% |         138     14.04%    100.00% (Unspecified)
system.caches.L2Cache_Controller.WB_Data_clean::total          983                       (Unspecified)
system.caches.L2Cache_Controller.Ack     |        8732     16.62%     16.62% |        7827     14.89%     31.51% |        6882     13.10%     44.61% |        5018      9.55%     54.15% |        6205     11.81%     65.96% |        5683     10.81%     76.78% |        5482     10.43%     87.21% |        6723     12.79%    100.00% (Unspecified)
system.caches.L2Cache_Controller.Ack::total        52552                       (Unspecified)
system.caches.L2Cache_Controller.Ack_all |        5742     12.68%     12.68% |        5925     13.09%     25.77% |        5882     12.99%     38.76% |        5694     12.58%     51.34% |        5912     13.06%     64.40% |        5659     12.50%     76.90% |        5114     11.30%     88.19% |        5345     11.81%    100.00% (Unspecified)
system.caches.L2Cache_Controller.Ack_all::total        45273                       (Unspecified)
system.caches.L2Cache_Controller.Unblock |         308     23.12%     23.12% |         179     13.44%     36.56% |         137     10.29%     46.85% |         102      7.66%     54.50% |          96      7.21%     61.71% |          44      3.30%     65.02% |         329     24.70%     89.71% |         137     10.29%    100.00% (Unspecified)
system.caches.L2Cache_Controller.Unblock::total         1332                       (Unspecified)
system.caches.L2Cache_Controller.Exclusive_Unblock |      711989     12.51%     12.51% |      712098     12.51%     25.02% |      710046     12.48%     37.50% |      710896     12.49%     49.99% |      711056     12.49%     62.48% |      711875     12.51%     74.99% |      711543     12.50%     87.49% |      711970     12.51%    100.00% (Unspecified)
system.caches.L2Cache_Controller.Exclusive_Unblock::total      5691473                       (Unspecified)
system.caches.L2Cache_Controller.NP.L1_GET_INSTR |         923     13.77%     13.77% |        1010     15.07%     28.83% |         857     12.78%     41.62% |         666      9.93%     51.55% |         838     12.50%     64.05% |         799     11.92%     75.97% |         744     11.10%     87.07% |         867     12.93%    100.00% (Unspecified)
system.caches.L2Cache_Controller.NP.L1_GET_INSTR::total         6704                       (Unspecified)
system.caches.L2Cache_Controller.NP.L1_GETS |      567490     12.51%     12.51% |      567726     12.51%     25.02% |      566884     12.49%     37.51% |      567055     12.50%     50.01% |      567298     12.50%     62.51% |      567031     12.50%     75.00% |      566830     12.49%     87.49% |      567503     12.51%    100.00% (Unspecified)
system.caches.L2Cache_Controller.NP.L1_GETS::total      4537817                       (Unspecified)
system.caches.L2Cache_Controller.NP.L1_GETX |      144289     12.53%     12.53% |      144009     12.51%     25.04% |      143024     12.42%     37.47% |      143577     12.47%     49.94% |      143504     12.47%     62.40% |      144493     12.55%     74.95% |      144118     12.52%     87.47% |      144226     12.53%    100.00% (Unspecified)
system.caches.L2Cache_Controller.NP.L1_GETX::total      1151240                       (Unspecified)
system.caches.L2Cache_Controller.NP.L1_PUTX_old |           0      0.00%      0.00% |           1     33.33%     33.33% |           0      0.00%     33.33% |           0      0.00%     33.33% |           0      0.00%     33.33% |           0      0.00%     33.33% |           1     33.33%     66.67% |           1     33.33%    100.00% (Unspecified)
system.caches.L2Cache_Controller.NP.L1_PUTX_old::total            3                       (Unspecified)
system.caches.L2Cache_Controller.SS.L1_GET_INSTR |        3964     13.36%     13.36% |        4242     14.30%     27.67% |        3655     12.32%     39.99% |        2446      8.25%     48.24% |        4022     13.56%     61.79% |        4186     14.11%     75.91% |        3643     12.28%     88.19% |        3503     11.81%    100.00% (Unspecified)
system.caches.L2Cache_Controller.SS.L1_GET_INSTR::total        29661                       (Unspecified)
system.caches.L2Cache_Controller.SS.L1_GETS |        4031     23.97%     23.97% |        2372     14.10%     38.07% |        2449     14.56%     52.64% |        1577      9.38%     62.01% |        1587      9.44%     71.45% |         811      4.82%     76.27% |        1452      8.63%     84.91% |        2538     15.09%    100.00% (Unspecified)
system.caches.L2Cache_Controller.SS.L1_GETS::total        16817                       (Unspecified)
system.caches.L2Cache_Controller.SS.L1_GETX |          27     55.10%     55.10% |           0      0.00%     55.10% |           0      0.00%     55.10% |           0      0.00%     55.10% |           0      0.00%     55.10% |           0      0.00%     55.10% |          22     44.90%    100.00% |           0      0.00%    100.00% (Unspecified)
system.caches.L2Cache_Controller.SS.L1_GETX::total           49                       (Unspecified)
system.caches.L2Cache_Controller.SS.L1_UPGRADE |           0      0.00%      0.00% |          25     11.01%     11.01% |           0      0.00%     11.01% |           0      0.00%     11.01% |           0      0.00%     11.01% |           0      0.00%     11.01% |         202     88.99%    100.00% |           0      0.00%    100.00% (Unspecified)
system.caches.L2Cache_Controller.SS.L1_UPGRADE::total          227                       (Unspecified)
system.caches.L2Cache_Controller.SS.L2_Replacement |          58     53.21%     53.21% |          25     22.94%     76.15% |           0      0.00%     76.15% |           0      0.00%     76.15% |           0      0.00%     76.15% |           0      0.00%     76.15% |          26     23.85%    100.00% |           0      0.00%    100.00% (Unspecified)
system.caches.L2Cache_Controller.SS.L2_Replacement::total          109                       (Unspecified)
system.caches.L2Cache_Controller.SS.L2_Replacement_clean |        1360     15.49%     15.49% |        1304     14.85%     30.34% |        1198     13.64%     43.98% |         893     10.17%     54.15% |        1066     12.14%     66.29% |         927     10.56%     76.85% |         853      9.71%     86.56% |        1180     13.44%    100.00% (Unspecified)
system.caches.L2Cache_Controller.SS.L2_Replacement_clean::total         8781                       (Unspecified)
system.caches.L2Cache_Controller.M.L1_GET_INSTR |           0      0.00%      0.00% |           3     18.75%     18.75% |           3     18.75%     37.50% |           0      0.00%     37.50% |           2     12.50%     50.00% |           3     18.75%     68.75% |           3     18.75%     87.50% |           2     12.50%    100.00% (Unspecified)
system.caches.L2Cache_Controller.M.L1_GET_INSTR::total           16                       (Unspecified)
system.caches.L2Cache_Controller.M.L1_GETS |         299     12.70%     12.70% |         395     16.78%     29.48% |         279     11.85%     41.33% |         286     12.15%     53.48% |         311     13.21%     66.69% |         240     10.20%     76.89% |         266     11.30%     88.19% |         278     11.81%    100.00% (Unspecified)
system.caches.L2Cache_Controller.M.L1_GETS::total         2354                       (Unspecified)
system.caches.L2Cache_Controller.M.L1_GETX |          95     10.47%     10.47% |         106     11.69%     22.16% |          58      6.39%     28.56% |         102     11.25%     39.80% |          74      8.16%     47.96% |         198     21.83%     69.79% |         136     14.99%     84.79% |         138     15.21%    100.00% (Unspecified)
system.caches.L2Cache_Controller.M.L1_GETX::total          907                       (Unspecified)
system.caches.L2Cache_Controller.M.L2_Replacement |      146246     12.54%     12.54% |      145753     12.49%     25.03% |      144855     12.42%     37.44% |      145582     12.48%     49.92% |      145306     12.45%     62.38% |      146633     12.57%     74.95% |      145850     12.50%     87.45% |      146453     12.55%    100.00% (Unspecified)
system.caches.L2Cache_Controller.M.L2_Replacement::total      1166678                       (Unspecified)
system.caches.L2Cache_Controller.M.L2_Replacement_clean |      552637     12.50%     12.50% |      552963     12.51%     25.02% |      552270     12.50%     37.51% |      552159     12.49%     50.00% |      552603     12.50%     62.51% |      552124     12.49%     75.00% |      552587     12.50%     87.50% |      552379     12.50%    100.00% (Unspecified)
system.caches.L2Cache_Controller.M.L2_Replacement_clean::total      4419722                       (Unspecified)
system.caches.L2Cache_Controller.MT.L1_GETS |         308     23.12%     23.12% |         179     13.44%     36.56% |         137     10.29%     46.85% |         102      7.66%     54.50% |          96      7.21%     61.71% |          44      3.30%     65.02% |         329     24.70%     89.71% |         137     10.29%    100.00% (Unspecified)
system.caches.L2Cache_Controller.MT.L1_GETS::total         1332                       (Unspecified)
system.caches.L2Cache_Controller.MT.L1_GETX |           3     50.00%     50.00% |           0      0.00%     50.00% |           0      0.00%     50.00% |           0      0.00%     50.00% |           0      0.00%     50.00% |           0      0.00%     50.00% |           3     50.00%    100.00% |           0      0.00%    100.00% (Unspecified)
system.caches.L2Cache_Controller.MT.L1_GETX::total            6                       (Unspecified)
system.caches.L2Cache_Controller.MT.L1_PUTX |      699274     12.51%     12.51% |      699216     12.51%     25.02% |      697463     12.48%     37.50% |      698118     12.49%     49.99% |      698292     12.49%     62.48% |      699184     12.51%     74.99% |      698829     12.50%     87.49% |      699246     12.51%    100.00% (Unspecified)
system.caches.L2Cache_Controller.MT.L1_PUTX::total      5589622                       (Unspecified)
system.caches.L2Cache_Controller.MT.L2_Replacement |          20     13.42%     13.42% |          20     13.42%     26.85% |          16     10.74%     37.58% |          18     12.08%     49.66% |          17     11.41%     61.07% |          18     12.08%     73.15% |          19     12.75%     85.91% |          21     14.09%    100.00% (Unspecified)
system.caches.L2Cache_Controller.MT.L2_Replacement::total          149                       (Unspecified)
system.caches.L2Cache_Controller.MT.L2_Replacement_clean |       12381     12.34%     12.34% |       12680     12.64%     24.98% |       12426     12.39%     37.37% |       12646     12.61%     49.97% |       12648     12.61%     62.58% |       12621     12.58%     75.16% |       12357     12.32%     87.48% |       12563     12.52%    100.00% (Unspecified)
system.caches.L2Cache_Controller.MT.L2_Replacement_clean::total       100322                       (Unspecified)
system.caches.L2Cache_Controller.M_I.L1_GET_INSTR |           1      2.33%      2.33% |           0      0.00%      2.33% |           0      0.00%      2.33% |           0      0.00%      2.33% |          20     46.51%     48.84% |          22     51.16%    100.00% |           0      0.00%    100.00% |           0      0.00%    100.00% (Unspecified)
system.caches.L2Cache_Controller.M_I.L1_GET_INSTR::total           43                       (Unspecified)
system.caches.L2Cache_Controller.M_I.L1_GETS |          20     10.26%     10.26% |          24     12.31%     22.56% |          21     10.77%     33.33% |          17      8.72%     42.05% |          18      9.23%     51.28% |          15      7.69%     58.97% |          28     14.36%     73.33% |          52     26.67%    100.00% (Unspecified)
system.caches.L2Cache_Controller.M_I.L1_GETS::total          195                       (Unspecified)
system.caches.L2Cache_Controller.M_I.L1_GETX |          14     11.97%     11.97% |          19     16.24%     28.21% |           9      7.69%     35.90% |          15     12.82%     48.72% |          13     11.11%     59.83% |          21     17.95%     77.78% |          11      9.40%     87.18% |          15     12.82%    100.00% (Unspecified)
system.caches.L2Cache_Controller.M_I.L1_GETX::total          117                       (Unspecified)
system.caches.L2Cache_Controller.M_I.Mem_Ack |      712702     12.51%     12.51% |      712745     12.51%     25.03% |      710765     12.48%     37.51% |      711298     12.49%     49.99% |      711640     12.49%     62.49% |      712321     12.51%     74.99% |      711691     12.50%     87.49% |      712596     12.51%    100.00% (Unspecified)
system.caches.L2Cache_Controller.M_I.Mem_Ack::total      5695758                       (Unspecified)
system.caches.L2Cache_Controller.MT_I.WB_Data |          20     13.42%     13.42% |          20     13.42%     26.85% |          16     10.74%     37.58% |          18     12.08%     49.66% |          17     11.41%     61.07% |          18     12.08%     73.15% |          19     12.75%     85.91% |          21     14.09%    100.00% (Unspecified)
system.caches.L2Cache_Controller.MT_I.WB_Data::total          149                       (Unspecified)
system.caches.L2Cache_Controller.MCT_I.L1_PUTX_old |           0      0.00%      0.00% |           1     33.33%     33.33% |           0      0.00%     33.33% |           0      0.00%     33.33% |           0      0.00%     33.33% |           0      0.00%     33.33% |           1     33.33%     66.67% |           1     33.33%    100.00% (Unspecified)
system.caches.L2Cache_Controller.MCT_I.L1_PUTX_old::total            3                       (Unspecified)
system.caches.L2Cache_Controller.MCT_I.WB_Data |        8057     12.60%     12.60% |        8083     12.64%     25.24% |        7742     12.11%     37.35% |        7845     12.27%     49.62% |        7802     12.20%     61.83% |        7889     12.34%     74.16% |        8121     12.70%     86.87% |        8397     13.13%    100.00% (Unspecified)
system.caches.L2Cache_Controller.MCT_I.WB_Data::total        63936                       (Unspecified)
system.caches.L2Cache_Controller.MCT_I.WB_Data_clean |           0      0.00%      0.00% |           1     33.33%     33.33% |           0      0.00%     33.33% |           0      0.00%     33.33% |           0      0.00%     33.33% |           0      0.00%     33.33% |           1     33.33%     66.67% |           1     33.33%    100.00% (Unspecified)
system.caches.L2Cache_Controller.MCT_I.WB_Data_clean::total            3                       (Unspecified)
system.caches.L2Cache_Controller.MCT_I.Ack_all |        4324     11.88%     11.88% |        4596     12.63%     24.52% |        4684     12.87%     37.39% |        4801     13.20%     50.59% |        4846     13.32%     63.91% |        4732     13.01%     76.91% |        4235     11.64%     88.55% |        4165     11.45%    100.00% (Unspecified)
system.caches.L2Cache_Controller.MCT_I.Ack_all::total        36383                       (Unspecified)
system.caches.L2Cache_Controller.I_I.Ack |        8360     16.12%     16.12% |        7686     14.82%     30.94% |        6882     13.27%     44.21% |        5018      9.68%     53.89% |        6205     11.97%     65.86% |        5683     10.96%     76.82% |        5300     10.22%     87.04% |        6723     12.96%    100.00% (Unspecified)
system.caches.L2Cache_Controller.I_I.Ack::total        51857                       (Unspecified)
system.caches.L2Cache_Controller.I_I.Ack_all |        1360     15.49%     15.49% |        1304     14.85%     30.34% |        1198     13.64%     43.98% |         893     10.17%     54.15% |        1066     12.14%     66.29% |         927     10.56%     76.85% |         853      9.71%     86.56% |        1180     13.44%    100.00% (Unspecified)
system.caches.L2Cache_Controller.I_I.Ack_all::total         8781                       (Unspecified)
system.caches.L2Cache_Controller.S_I.Ack |         372     53.53%     53.53% |         141     20.29%     73.81% |           0      0.00%     73.81% |           0      0.00%     73.81% |           0      0.00%     73.81% |           0      0.00%     73.81% |         182     26.19%    100.00% |           0      0.00%    100.00% (Unspecified)
system.caches.L2Cache_Controller.S_I.Ack::total          695                       (Unspecified)
system.caches.L2Cache_Controller.S_I.Ack_all |          58     53.21%     53.21% |          25     22.94%     76.15% |           0      0.00%     76.15% |           0      0.00%     76.15% |           0      0.00%     76.15% |           0      0.00%     76.15% |          26     23.85%    100.00% |           0      0.00%    100.00% (Unspecified)
system.caches.L2Cache_Controller.S_I.Ack_all::total          109                       (Unspecified)
system.caches.L2Cache_Controller.ISS.L1_GETS |         211     19.03%     19.03% |         162     14.61%     33.63% |         199     17.94%     51.58% |         122     11.00%     62.58% |         131     11.81%     74.39% |          81      7.30%     81.70% |          29      2.61%     84.31% |         174     15.69%    100.00% (Unspecified)
system.caches.L2Cache_Controller.ISS.L1_GETS::total         1109                       (Unspecified)
system.caches.L2Cache_Controller.ISS.Mem_Data |      567276     12.50%     12.50% |      567563     12.51%     25.01% |      566685     12.49%     37.51% |      566932     12.50%     50.00% |      567167     12.50%     62.50% |      566947     12.50%     75.00% |      566797     12.49%     87.49% |      567328     12.51%    100.00% (Unspecified)
system.caches.L2Cache_Controller.ISS.Mem_Data::total      4536695                       (Unspecified)
system.caches.L2Cache_Controller.IS.L1_GET_INSTR |        1437     11.87%     11.87% |        1799     14.86%     26.73% |        1456     12.03%     38.76% |        1171      9.67%     48.44% |        1597     13.19%     61.63% |        1771     14.63%     76.26% |        1566     12.94%     89.20% |        1307     10.80%    100.00% (Unspecified)
system.caches.L2Cache_Controller.IS.L1_GET_INSTR::total        12104                       (Unspecified)
system.caches.L2Cache_Controller.IS.L1_GETS |         472     29.24%     29.24% |         283     17.53%     46.78% |         246     15.24%     62.02% |         151      9.36%     71.38% |         125      7.74%     79.12% |         182     11.28%     90.40% |          31      1.92%     92.32% |         124      7.68%    100.00% (Unspecified)
system.caches.L2Cache_Controller.IS.L1_GETS::total         1614                       (Unspecified)
system.caches.L2Cache_Controller.IS.Mem_Data |        1134     14.51%     14.51% |        1172     15.00%     29.51% |        1056     13.52%     43.03% |         788     10.09%     53.12% |         969     12.40%     65.52% |         880     11.26%     76.78% |         773      9.89%     86.68% |        1041     13.32%    100.00% (Unspecified)
system.caches.L2Cache_Controller.IS.Mem_Data::total         7813                       (Unspecified)
system.caches.L2Cache_Controller.IM.Mem_Data |      144289     12.53%     12.53% |      144009     12.51%     25.04% |      143024     12.42%     37.47% |      143576     12.47%     49.94% |      143504     12.47%     62.40% |      144490     12.55%     74.95% |      144118     12.52%     87.47% |      144226     12.53%    100.00% (Unspecified)
system.caches.L2Cache_Controller.IM.Mem_Data::total      1151236                       (Unspecified)
system.caches.L2Cache_Controller.SS_MB.L1_GETS |           0      0.00%      0.00% |           0      0.00%      0.00% |           0      0.00%      0.00% |           0      0.00%      0.00% |           0      0.00%      0.00% |           0      0.00%      0.00% |         456    100.00%    100.00% |           0      0.00%    100.00% (Unspecified)
system.caches.L2Cache_Controller.SS_MB.L1_GETS::total          456                       (Unspecified)
system.caches.L2Cache_Controller.SS_MB.Exclusive_Unblock |          27      9.78%      9.78% |          25      9.06%     18.84% |           0      0.00%     18.84% |           0      0.00%     18.84% |           0      0.00%     18.84% |           0      0.00%     18.84% |         224     81.16%    100.00% |           0      0.00%    100.00% (Unspecified)
system.caches.L2Cache_Controller.SS_MB.Exclusive_Unblock::total          276                       (Unspecified)
system.caches.L2Cache_Controller.MT_MB.L1_GETS |           0      0.00%      0.00% |           2     40.00%     40.00% |           2     40.00%     80.00% |           0      0.00%     80.00% |           1     20.00%    100.00% |           0      0.00%    100.00% |           0      0.00%    100.00% |           0      0.00%    100.00% (Unspecified)
system.caches.L2Cache_Controller.MT_MB.L1_GETS::total            5                       (Unspecified)
system.caches.L2Cache_Controller.MT_MB.Exclusive_Unblock |      711962     12.51%     12.51% |      712073     12.51%     25.02% |      710046     12.48%     37.50% |      710896     12.49%     49.99% |      711056     12.49%     62.48% |      711875     12.51%     74.99% |      711319     12.50%     87.49% |      711970     12.51%    100.00% (Unspecified)
system.caches.L2Cache_Controller.MT_MB.Exclusive_Unblock::total      5691197                       (Unspecified)
system.caches.L2Cache_Controller.MT_IIB.L1_GETS |          41     10.30%     10.30% |          33      8.29%     18.59% |          11      2.76%     21.36% |           0      0.00%     21.36% |           0      0.00%     21.36% |           0      0.00%     21.36% |         309     77.64%     98.99% |           4      1.01%    100.00% (Unspecified)
system.caches.L2Cache_Controller.MT_IIB.L1_GETS::total          398                       (Unspecified)
system.caches.L2Cache_Controller.MT_IIB.WB_Data |          75     21.31%     21.31% |          37     10.51%     31.82% |           0      0.00%     31.82% |           0      0.00%     31.82% |           0      0.00%     31.82% |           0      0.00%     31.82% |         240     68.18%    100.00% |           0      0.00%    100.00% (Unspecified)
system.caches.L2Cache_Controller.MT_IIB.WB_Data::total          352                       (Unspecified)
system.caches.L2Cache_Controller.MT_IIB.WB_Data_clean |         233     23.78%     23.78% |         142     14.49%     38.27% |         137     13.98%     52.24% |         102     10.41%     62.65% |          96      9.80%     72.45% |          44      4.49%     76.94% |          89      9.08%     86.02% |         137     13.98%    100.00% (Unspecified)
system.caches.L2Cache_Controller.MT_IIB.WB_Data_clean::total          980                       (Unspecified)
system.caches.L2Cache_Controller.MT_SB.L1_GETS |           4     22.22%     22.22% |           8     44.44%     66.67% |           0      0.00%     66.67% |           0      0.00%     66.67% |           0      0.00%     66.67% |           0      0.00%     66.67% |           6     33.33%    100.00% |           0      0.00%    100.00% (Unspecified)
system.caches.L2Cache_Controller.MT_SB.L1_GETS::total           18                       (Unspecified)
system.caches.L2Cache_Controller.MT_SB.L1_UPGRADE |           0      0.00%      0.00% |           0      0.00%      0.00% |           0      0.00%      0.00% |           0      0.00%      0.00% |           0      0.00%      0.00% |           0      0.00%      0.00% |          76    100.00%    100.00% |           0      0.00%    100.00% (Unspecified)
system.caches.L2Cache_Controller.MT_SB.L1_UPGRADE::total           76                       (Unspecified)
system.caches.L2Cache_Controller.MT_SB.Unblock |         308     23.12%     23.12% |         179     13.44%     36.56% |         137     10.29%     46.85% |         102      7.66%     54.50% |          96      7.21%     61.71% |          44      3.30%     65.02% |         329     24.70%     89.71% |         137     10.29%    100.00% (Unspecified)
system.caches.L2Cache_Controller.MT_SB.Unblock::total         1332                       (Unspecified)
system.caches.RequestType.LD.latency_hist_seqr::bucket_size          512                       (Unspecified)
system.caches.RequestType.LD.latency_hist_seqr::max_bucket         5119                       (Unspecified)
system.caches.RequestType.LD.latency_hist_seqr::samples     69364939                       (Unspecified)
system.caches.RequestType.LD.latency_hist_seqr::mean    37.853529                       (Unspecified)
system.caches.RequestType.LD.latency_hist_seqr::gmean     1.520111                       (Unspecified)
system.caches.RequestType.LD.latency_hist_seqr::stdev   158.404787                       (Unspecified)
system.caches.RequestType.LD.latency_hist_seqr |    67627213     97.49%     97.49% |     1569257      2.26%     99.76% |       97619      0.14%     99.90% |        5492      0.01%     99.91% |       44176      0.06%     99.97% |       20058      0.03%    100.00% |        1089      0.00%    100.00% |          34      0.00%    100.00% |           1      0.00%    100.00% |           0      0.00%    100.00% (Unspecified)
system.caches.RequestType.LD.latency_hist_seqr::total     69364939                       (Unspecified)
system.caches.RequestType.LD.hit_latency_hist_seqr::bucket_size            1                       (Unspecified)
system.caches.RequestType.LD.hit_latency_hist_seqr::max_bucket            9                       (Unspecified)
system.caches.RequestType.LD.hit_latency_hist_seqr::samples     64803910                       (Unspecified)
system.caches.RequestType.LD.hit_latency_hist_seqr::mean     1.012859                       (Unspecified)
system.caches.RequestType.LD.hit_latency_hist_seqr::gmean     1.008953                       (Unspecified)
system.caches.RequestType.LD.hit_latency_hist_seqr::stdev     0.112668                       (Unspecified)
system.caches.RequestType.LD.hit_latency_hist_seqr |           0      0.00%      0.00% |    63970565     98.71%     98.71% |      833345      1.29%    100.00% |           0      0.00%    100.00% |           0      0.00%    100.00% |           0      0.00%    100.00% |           0      0.00%    100.00% |           0      0.00%    100.00% |           0      0.00%    100.00% |           0      0.00%    100.00% (Unspecified)
system.caches.RequestType.LD.hit_latency_hist_seqr::total     64803910                       (Unspecified)
system.caches.RequestType.LD.miss_latency_hist_seqr::bucket_size          512                       (Unspecified)
system.caches.RequestType.LD.miss_latency_hist_seqr::max_bucket         5119                       (Unspecified)
system.caches.RequestType.LD.miss_latency_hist_seqr::samples      4561029                       (Unspecified)
system.caches.RequestType.LD.miss_latency_hist_seqr::mean   561.292300                       (Unspecified)
system.caches.RequestType.LD.miss_latency_hist_seqr::gmean   514.031551                       (Unspecified)
system.caches.RequestType.LD.miss_latency_hist_seqr::stdev   297.208020                       (Unspecified)
system.caches.RequestType.LD.miss_latency_hist_seqr |     2823303     61.90%     61.90% |     1569257     34.41%     96.31% |       97619      2.14%     98.45% |        5492      0.12%     98.57% |       44176      0.97%     99.54% |       20058      0.44%     99.98% |        1089      0.02%    100.00% |          34      0.00%    100.00% |           1      0.00%    100.00% |           0      0.00%    100.00% (Unspecified)
system.caches.RequestType.LD.miss_latency_hist_seqr::total      4561029                       (Unspecified)
system.caches.RequestType.ST.latency_hist_seqr::bucket_size          512                       (Unspecified)
system.caches.RequestType.ST.latency_hist_seqr::max_bucket         5119                       (Unspecified)
system.caches.RequestType.ST.latency_hist_seqr::samples     27277883                       (Unspecified)
system.caches.RequestType.ST.latency_hist_seqr::mean    24.065463                       (Unspecified)
system.caches.RequestType.ST.latency_hist_seqr::gmean     1.323222                       (Unspecified)
system.caches.RequestType.ST.latency_hist_seqr::stdev   124.752655                       (Unspecified)
system.caches.RequestType.ST.latency_hist_seqr |    26870679     98.51%     98.51% |      369426      1.35%     99.86% |       20680      0.08%     99.94% |        1403      0.01%     99.94% |       10857      0.04%     99.98% |        4597      0.02%    100.00% |         238      0.00%    100.00% |           3      0.00%    100.00% |           0      0.00%    100.00% |           0      0.00%    100.00% (Unspecified)
system.caches.RequestType.ST.latency_hist_seqr::total     27277883                       (Unspecified)
system.caches.RequestType.ST.hit_latency_hist_seqr::bucket_size          512                       (Unspecified)
system.caches.RequestType.ST.hit_latency_hist_seqr::max_bucket         5119                       (Unspecified)
system.caches.RequestType.ST.hit_latency_hist_seqr::samples     26129895                       (Unspecified)
system.caches.RequestType.ST.hit_latency_hist_seqr::mean     1.034323                       (Unspecified)
system.caches.RequestType.ST.hit_latency_hist_seqr::gmean     1.018931                       (Unspecified)
system.caches.RequestType.ST.hit_latency_hist_seqr::stdev     3.202925                       (Unspecified)
system.caches.RequestType.ST.hit_latency_hist_seqr |    26129757    100.00%    100.00% |          61      0.00%    100.00% |          36      0.00%    100.00% |          31      0.00%    100.00% |           4      0.00%    100.00% |           1      0.00%    100.00% |           5      0.00%    100.00% |           0      0.00%    100.00% |           0      0.00%    100.00% |           0      0.00%    100.00% (Unspecified)
system.caches.RequestType.ST.hit_latency_hist_seqr::total     26129895                       (Unspecified)
system.caches.RequestType.ST.miss_latency_hist_seqr::bucket_size          512                       (Unspecified)
system.caches.RequestType.ST.miss_latency_hist_seqr::max_bucket         5119                       (Unspecified)
system.caches.RequestType.ST.miss_latency_hist_seqr::samples      1147988                       (Unspecified)
system.caches.RequestType.ST.miss_latency_hist_seqr::mean   548.288088                       (Unspecified)
system.caches.RequestType.ST.miss_latency_hist_seqr::gmean   506.739022                       (Unspecified)
system.caches.RequestType.ST.miss_latency_hist_seqr::stdev   287.556710                       (Unspecified)
system.caches.RequestType.ST.miss_latency_hist_seqr |      740922     64.54%     64.54% |      369365     32.17%     96.72% |       20644      1.80%     98.51% |        1372      0.12%     98.63% |       10853      0.95%     99.58% |        4596      0.40%     99.98% |         233      0.02%    100.00% |           3      0.00%    100.00% |           0      0.00%    100.00% |           0      0.00%    100.00% (Unspecified)
system.caches.RequestType.ST.miss_latency_hist_seqr::total      1147988                       (Unspecified)
system.caches.RequestType.IFETCH.latency_hist_seqr::bucket_size          512                       (Unspecified)
system.caches.RequestType.IFETCH.latency_hist_seqr::max_bucket         5119                       (Unspecified)
system.caches.RequestType.IFETCH.latency_hist_seqr::samples     18378759                       (Unspecified)
system.caches.RequestType.IFETCH.latency_hist_seqr::mean     1.300546                       (Unspecified)
system.caches.RequestType.IFETCH.latency_hist_seqr::gmean     1.009873                       (Unspecified)
system.caches.RequestType.IFETCH.latency_hist_seqr::stdev    10.326974                       (Unspecified)
system.caches.RequestType.IFETCH.latency_hist_seqr |    18377939    100.00%    100.00% |         637      0.00%    100.00% |          81      0.00%    100.00% |          84      0.00%    100.00% |           7      0.00%    100.00% |           9      0.00%    100.00% |           2      0.00%    100.00% |           0      0.00%    100.00% |           0      0.00%    100.00% |           0      0.00%    100.00% (Unspecified)
system.caches.RequestType.IFETCH.latency_hist_seqr::total     18378759                       (Unspecified)
system.caches.RequestType.IFETCH.hit_latency_hist_seqr::bucket_size            1                       (Unspecified)
system.caches.RequestType.IFETCH.hit_latency_hist_seqr::max_bucket            9                       (Unspecified)
system.caches.RequestType.IFETCH.hit_latency_hist_seqr::samples     18330274                       (Unspecified)
system.caches.RequestType.IFETCH.hit_latency_hist_seqr::mean            1                       (Unspecified)
system.caches.RequestType.IFETCH.hit_latency_hist_seqr::gmean            1                       (Unspecified)
system.caches.RequestType.IFETCH.hit_latency_hist_seqr |           0      0.00%      0.00% |    18330274    100.00%    100.00% |           0      0.00%    100.00% |           0      0.00%    100.00% |           0      0.00%    100.00% |           0      0.00%    100.00% |           0      0.00%    100.00% |           0      0.00%    100.00% |           0      0.00%    100.00% |           0      0.00%    100.00% (Unspecified)
system.caches.RequestType.IFETCH.hit_latency_hist_seqr::total     18330274                       (Unspecified)
system.caches.RequestType.IFETCH.miss_latency_hist_seqr::bucket_size          512                       (Unspecified)
system.caches.RequestType.IFETCH.miss_latency_hist_seqr::max_bucket         5119                       (Unspecified)
system.caches.RequestType.IFETCH.miss_latency_hist_seqr::samples        48485                       (Unspecified)
system.caches.RequestType.IFETCH.miss_latency_hist_seqr::mean   114.925152                       (Unspecified)
system.caches.RequestType.IFETCH.miss_latency_hist_seqr::gmean    41.427886                       (Unspecified)
system.caches.RequestType.IFETCH.miss_latency_hist_seqr::stdev   165.774910                       (Unspecified)
system.caches.RequestType.IFETCH.miss_latency_hist_seqr |       47665     98.31%     98.31% |         637      1.31%     99.62% |          81      0.17%     99.79% |          84      0.17%     99.96% |           7      0.01%     99.98% |           9      0.02%    100.00% |           2      0.00%    100.00% |           0      0.00%    100.00% |           0      0.00%    100.00% |           0      0.00%    100.00% (Unspecified)
system.caches.RequestType.IFETCH.miss_latency_hist_seqr::total        48485                       (Unspecified)
system.caches.RequestType.RMW_Read.latency_hist_seqr::bucket_size          512                       (Unspecified)
system.caches.RequestType.RMW_Read.latency_hist_seqr::max_bucket         5119                       (Unspecified)
system.caches.RequestType.RMW_Read.latency_hist_seqr::samples       149220                       (Unspecified)
system.caches.RequestType.RMW_Read.latency_hist_seqr::mean    17.064502                       (Unspecified)
system.caches.RequestType.RMW_Read.latency_hist_seqr::gmean     1.288866                       (Unspecified)
system.caches.RequestType.RMW_Read.latency_hist_seqr::stdev   119.924889                       (Unspecified)
system.caches.RequestType.RMW_Read.latency_hist_seqr |      147345     98.74%     98.74% |        1387      0.93%     99.67% |         328      0.22%     99.89% |         103      0.07%     99.96% |          31      0.02%     99.98% |          16      0.01%     99.99% |           9      0.01%    100.00% |           1      0.00%    100.00% |           0      0.00%    100.00% |           0      0.00%    100.00% (Unspecified)
system.caches.RequestType.RMW_Read.latency_hist_seqr::total       149220                       (Unspecified)
system.caches.RequestType.RMW_Read.hit_latency_hist_seqr::bucket_size          512                       (Unspecified)
system.caches.RequestType.RMW_Read.hit_latency_hist_seqr::max_bucket         5119                       (Unspecified)
system.caches.RequestType.RMW_Read.hit_latency_hist_seqr::samples       145453                       (Unspecified)
system.caches.RequestType.RMW_Read.hit_latency_hist_seqr::mean     2.856153                       (Unspecified)
system.caches.RequestType.RMW_Read.hit_latency_hist_seqr::gmean     1.115170                       (Unspecified)
system.caches.RequestType.RMW_Read.hit_latency_hist_seqr::stdev    36.270236                       (Unspecified)
system.caches.RequestType.RMW_Read.hit_latency_hist_seqr |      145255     99.86%     99.86% |         176      0.12%     99.98% |          14      0.01%     99.99% |           4      0.00%    100.00% |           2      0.00%    100.00% |           1      0.00%    100.00% |           1      0.00%    100.00% |           0      0.00%    100.00% |           0      0.00%    100.00% |           0      0.00%    100.00% (Unspecified)
system.caches.RequestType.RMW_Read.hit_latency_hist_seqr::total       145453                       (Unspecified)
system.caches.RequestType.RMW_Read.miss_latency_hist_seqr::bucket_size          512                       (Unspecified)
system.caches.RequestType.RMW_Read.miss_latency_hist_seqr::max_bucket         5119                       (Unspecified)
system.caches.RequestType.RMW_Read.miss_latency_hist_seqr::samples         3767                       (Unspecified)
system.caches.RequestType.RMW_Read.miss_latency_hist_seqr::mean   565.683302                       (Unspecified)
system.caches.RequestType.RMW_Read.miss_latency_hist_seqr::gmean   344.855808                       (Unspecified)
system.caches.RequestType.RMW_Read.miss_latency_hist_seqr::stdev   458.458303                       (Unspecified)
system.caches.RequestType.RMW_Read.miss_latency_hist_seqr |        2090     55.48%     55.48% |        1211     32.15%     87.63% |         314      8.34%     95.96% |          99      2.63%     98.59% |          29      0.77%     99.36% |          15      0.40%     99.76% |           8      0.21%     99.97% |           1      0.03%    100.00% |           0      0.00%    100.00% |           0      0.00%    100.00% (Unspecified)
system.caches.RequestType.RMW_Read.miss_latency_hist_seqr::total         3767                       (Unspecified)
system.caches.RequestType.Locked_RMW_Read.latency_hist_seqr::bucket_size          512                       (Unspecified)
system.caches.RequestType.Locked_RMW_Read.latency_hist_seqr::max_bucket         5119                       (Unspecified)
system.caches.RequestType.Locked_RMW_Read.latency_hist_seqr::samples         2199                       (Unspecified)
system.caches.RequestType.Locked_RMW_Read.latency_hist_seqr::mean   223.034106                       (Unspecified)
system.caches.RequestType.Locked_RMW_Read.latency_hist_seqr::gmean     6.382238                       (Unspecified)
system.caches.RequestType.Locked_RMW_Read.latency_hist_seqr::stdev   456.156439                       (Unspecified)
system.caches.RequestType.Locked_RMW_Read.latency_hist_seqr |        1793     81.54%     81.54% |         230     10.46%     92.00% |         102      4.64%     96.63% |          67      3.05%     99.68% |           0      0.00%     99.68% |           3      0.14%     99.82% |           3      0.14%     99.95% |           1      0.05%    100.00% |           0      0.00%    100.00% |           0      0.00%    100.00% (Unspecified)
system.caches.RequestType.Locked_RMW_Read.latency_hist_seqr::total         2199                       (Unspecified)
[...]
system.o3Cpu7.iew.squashCycles                   5964                       # Number of cycles IEW is squashing (Cycle)
system.o3Cpu7.iew.blockCycles                  681482                       # Number of cycles IEW is blocking (Cycle)
system.o3Cpu7.iew.unblockCycles              10042653                       # Number of cycles IEW is unblocking (Cycle)
system.o3Cpu7.iew.dispatchedInsts            46078615                       # Number of instructions dispatched to IQ (Count)
system.o3Cpu7.iew.dispSquashedInsts              1022                       # Number of squashed instructions skipped by dispatch (Count)
system.o3Cpu7.iew.dispLoadInsts              15346876                       # Number of dispatched load instructions (Count)
system.o3Cpu7.iew.dispStoreInsts              3421325                       # Number of dispatched store instructions (Count)
system.o3Cpu7.iew.dispNonSpecInsts               1580                       # Number of dispatched non-speculative instructions (Count)
system.o3Cpu7.iew.iqFullEvents                   2424                       # Number of times the IQ has become full, causing a stall (Count)
system.o3Cpu7.iew.lsqFullEvents              10038212                       # Number of times the LSQ has become full, causing a stall (Count)
system.o3Cpu7.iew.memOrderViolationEvents          680                       # Number of memory order violations (Count)
system.o3Cpu7.iew.predictedTakenIncorrect         4718                       # Number of branches that were predicted taken incorrectly (Count)
system.o3Cpu7.iew.predictedNotTakenIncorrect          539                       # Number of branches that were predicted not taken incorrectly (Count)
system.o3Cpu7.iew.branchMispredicts              5257                       # Number of branch mispredicts detected at execute (Count)
system.o3Cpu7.iew.instsToCommit              45998271                       # Cumulative count of insts sent to commit (Count)
system.o3Cpu7.iew.writebackCount             45990311                       # Cumulative count of insts written-back (Count)
system.o3Cpu7.iew.producerInst               36462247                       # Number of instructions producing a value (Count)
system.o3Cpu7.iew.consumerInst               58184064                       # Number of instructions consuming a value (Count)
system.o3Cpu7.iew.wbRate                     0.247788                       # Insts written-back per cycle ((Count/Cycle))
system.o3Cpu7.iew.wbFanout                   0.626671                       # Average fanout of values written-back ((Count/Count))
system.o3Cpu7.interrupts.clk_domain.clock         3200                       # Clock period in ticks (Tick)
system.o3Cpu7.lsq0.forwLoads                     8697                       # Number of loads that had data forwarded from stores (Count)
system.o3Cpu7.lsq0.squashedLoads                55598                       # Number of loads squashed (Count)
system.o3Cpu7.lsq0.ignoredResponses                31                       # Number of memory responses ignored because the instruction is squashed (Count)
system.o3Cpu7.lsq0.memOrderViolation              680                       # Number of memory ordering violations (Count)
system.o3Cpu7.lsq0.squashedStores                8337                       # Number of stores squashed (Count)
system.o3Cpu7.lsq0.rescheduledLoads                30                       # Number of loads that were rescheduled (Count)
system.o3Cpu7.lsq0.blockedByCache                3352                       # Number of times an access to memory failed due to the cache being blocked (Count)
system.o3Cpu7.lsq0.loadToUse::samples        15291246                       # Distribution of cycle latency between the first time a load is issued and its completion (Unspecified)
system.o3Cpu7.lsq0.loadToUse::mean          86.873086                       # Distribution of cycle latency between the first time a load is issued and its completion (Unspecified)
system.o3Cpu7.lsq0.loadToUse::stdev        230.176001                       # Distribution of cycle latency between the first time a load is issued and its completion (Unspecified)
system.o3Cpu7.lsq0.loadToUse::0-9            12922101     84.51%     84.51% # Distribution of cycle latency between the first time a load is issued and its completion (Unspecified)
system.o3Cpu7.lsq0.loadToUse::10-19             13028      0.09%     84.59% # Distribution of cycle latency between the first time a load is issued and its completion (Unspecified)
system.o3Cpu7.lsq0.loadToUse::20-29              9064      0.06%     84.65% # Distribution of cycle latency between the first time a load is issued and its completion (Unspecified)
system.o3Cpu7.lsq0.loadToUse::30-39              8415      0.06%     84.71% # Distribution of cycle latency between the first time a load is issued and its completion (Unspecified)
system.o3Cpu7.lsq0.loadToUse::40-49              4576      0.03%     84.74% # Distribution of cycle latency between the first time a load is issued and its completion (Unspecified)
system.o3Cpu7.lsq0.loadToUse::50-59              5831      0.04%     84.77% # Distribution of cycle latency between the first time a load is issued and its completion (Unspecified)
system.o3Cpu7.lsq0.loadToUse::60-69              5704      0.04%     84.81% # Distribution of cycle latency between the first time a load is issued and its completion (Unspecified)
system.o3Cpu7.lsq0.loadToUse::70-79              7481      0.05%     84.86% # Distribution of cycle latency between the first time a load is issued and its completion (Unspecified)
system.o3Cpu7.lsq0.loadToUse::80-89              4539      0.03%     84.89% # Distribution of cycle latency between the first time a load is issued and its completion (Unspecified)
system.o3Cpu7.lsq0.loadToUse::90-99              2839      0.02%     84.91% # Distribution of cycle latency between the first time a load is issued and its completion (Unspecified)
system.o3Cpu7.lsq0.loadToUse::100-109            3456      0.02%     84.93% # Distribution of cycle latency between the first time a load is issued and its completion (Unspecified)
system.o3Cpu7.lsq0.loadToUse::110-119            3821      0.02%     84.96% # Distribution of cycle latency between the first time a load is issued and its completion (Unspecified)
system.o3Cpu7.lsq0.loadToUse::120-129            3078      0.02%     84.98% # Distribution of cycle latency between the first time a load is issued and its completion (Unspecified)
system.o3Cpu7.lsq0.loadToUse::130-139            3050      0.02%     85.00% # Distribution of cycle latency between the first time a load is issued and its completion (Unspecified)
system.o3Cpu7.lsq0.loadToUse::140-149            2761      0.02%     85.01% # Distribution of cycle latency between the first time a load is issued and its completion (Unspecified)
system.o3Cpu7.lsq0.loadToUse::150-159            3236      0.02%     85.04% # Distribution of cycle latency between the first time a load is issued and its completion (Unspecified)
system.o3Cpu7.lsq0.loadToUse::160-169            3328      0.02%     85.06% # Distribution of cycle latency between the first time a load is issued and its completion (Unspecified)
system.o3Cpu7.lsq0.loadToUse::170-179            2452      0.02%     85.07% # Distribution of cycle latency between the first time a load is issued and its completion (Unspecified)
system.o3Cpu7.lsq0.loadToUse::180-189            2995      0.02%     85.09% # Distribution of cycle latency between the first time a load is issued and its completion (Unspecified)
system.o3Cpu7.lsq0.loadToUse::190-199            2431      0.02%     85.11% # Distribution of cycle latency between the first time a load is issued and its completion (Unspecified)
system.o3Cpu7.lsq0.loadToUse::200-209            3053      0.02%     85.13% # Distribution of cycle latency between the first time a load is issued and its completion (Unspecified)
system.o3Cpu7.lsq0.loadToUse::210-219            2064      0.01%     85.14% # Distribution of cycle latency between the first time a load is issued and its completion (Unspecified)
system.o3Cpu7.lsq0.loadToUse::220-229            1831      0.01%     85.15% # Distribution of cycle latency between the first time a load is issued and its completion (Unspecified)
system.o3Cpu7.lsq0.loadToUse::230-239            2844      0.02%     85.17% # Distribution of cycle latency between the first time a load is issued and its completion (Unspecified)
system.o3Cpu7.lsq0.loadToUse::240-249            2089      0.01%     85.19% # Distribution of cycle latency between the first time a load is issued and its completion (Unspecified)
system.o3Cpu7.lsq0.loadToUse::250-259            2495      0.02%     85.20% # Distribution of cycle latency between the first time a load is issued and its completion (Unspecified)
system.o3Cpu7.lsq0.loadToUse::260-269            2422      0.02%     85.22% # Distribution of cycle latency between the first time a load is issued and its completion (Unspecified)
system.o3Cpu7.lsq0.loadToUse::270-279            2071      0.01%     85.23% # Distribution of cycle latency between the first time a load is issued and its completion (Unspecified)
system.o3Cpu7.lsq0.loadToUse::280-289            2231      0.01%     85.25% # Distribution of cycle latency between the first time a load is issued and its completion (Unspecified)
system.o3Cpu7.lsq0.loadToUse::290-299            2366      0.02%     85.26% # Distribution of cycle latency between the first time a load is issued and its completion (Unspecified)
system.o3Cpu7.lsq0.loadToUse::overflows       2253594     14.74%    100.00% # Distribution of cycle latency between the first time a load is issued and its completion (Unspecified)
system.o3Cpu7.lsq0.loadToUse::min_value             2                       # Distribution of cycle latency between the first time a load is issued and its completion (Unspecified)
system.o3Cpu7.lsq0.loadToUse::max_value          3879                       # Distribution of cycle latency between the first time a load is issued and its completion (Unspecified)
system.o3Cpu7.lsq0.loadToUse::total          15291246                       # Distribution of cycle latency between the first time a load is issued and its completion (Unspecified)
system.o3Cpu7.mmu.dtb.rdAccesses             15338897                       # TLB accesses on read requests (Count)
system.o3Cpu7.mmu.dtb.wrAccesses              3415826                       # TLB accesses on write requests (Count)
system.o3Cpu7.mmu.dtb.rdMisses                   2625                       # TLB misses on read requests (Count)
system.o3Cpu7.mmu.dtb.wrMisses                   1279                       # TLB misses on write requests (Count)
system.o3Cpu7.mmu.dtb.walker.power_state.pwrStateResidencyTicks::UNDEFINED  38134839600                       # Cumulative time (in ticks) in various power states (Tick)
system.o3Cpu7.mmu.itb.rdAccesses                    0                       # TLB accesses on read requests (Count)
system.o3Cpu7.mmu.itb.wrAccesses              2300292                       # TLB accesses on write requests (Count)
system.o3Cpu7.mmu.itb.rdMisses                      0                       # TLB misses on read requests (Count)
system.o3Cpu7.mmu.itb.wrMisses                     80                       # TLB misses on write requests (Count)
system.o3Cpu7.mmu.itb.walker.power_state.pwrStateResidencyTicks::UNDEFINED  38134839600                       # Cumulative time (in ticks) in various power states (Tick)
system.o3Cpu7.power_state.pwrStateResidencyTicks::OFF  38134839600                       # Cumulative time (in ticks) in various power states (Tick)
system.o3Cpu7.rename.squashCycles                5964                       # Number of cycles rename is squashing (Cycle)
system.o3Cpu7.rename.idleCycles               1832079                       # Number of cycles rename is idle (Cycle)
system.o3Cpu7.rename.blockCycles             11094505                       # Number of cycles rename is blocking (Cycle)
system.o3Cpu7.rename.serializeStallCycles       378711                       # count of cycles rename stalled for serializing inst (Cycle)
system.o3Cpu7.rename.runCycles                5633168                       # Number of cycles rename is running (Cycle)
system.o3Cpu7.rename.unblockCycles          166441859                       # Number of cycles rename is unblocking (Cycle)
system.o3Cpu7.rename.renamedInsts            46113520                       # Number of instructions processed by rename (Count)
system.o3Cpu7.rename.ROBFullEvents              20771                       # Number of times rename has blocked due to ROB full (Count)
system.o3Cpu7.rename.IQFullEvents              152971                       # Number of times rename has blocked due to IQ full (Count)
system.o3Cpu7.rename.LQFullEvents           149351601                       # Number of times rename has blocked due to LQ full (Count)
system.o3Cpu7.rename.SQFullEvents            16536751                       # Number of times rename has blocked due to SQ full (Count)
system.o3Cpu7.rename.renamedOperands         58953438                       # Number of destination operands rename has renamed (Count)
system.o3Cpu7.rename.lookups                147790895                       # Number of register rename lookups that rename has made (Count)
system.o3Cpu7.rename.intLookups              46371637                       # Number of integer rename lookups (Count)
system.o3Cpu7.rename.fpLookups               56171970                       # Number of floating rename lookups (Count)
system.o3Cpu7.rename.committedMaps           58712633                       # Number of HB maps that are committed (Count)
system.o3Cpu7.rename.undoneMaps                240707                       # Number of HB maps that are undone due to squashing (Count)
system.o3Cpu7.rename.serializing                 1678                       # count of serializing insts renamed (Count)
system.o3Cpu7.rename.tempSerializing             1738                       # count of temporary serializing insts renamed (Count)
system.o3Cpu7.rename.skidInsts                7822288                       # count of insts added to the skid buffer (Count)
system.o3Cpu7.rob.reads                     227064384                       # The number of ROB reads (Count)
system.o3Cpu7.rob.writes                     92175068                       # The number of ROB writes (Count)
system.o3Cpu7.thread_0.numInsts              22746884                       # Number of Instructions committed (Count)
system.o3Cpu7.thread_0.numOps                45931650                       # Number of Ops committed (Count)
system.o3Cpu7.thread_0.numMemRefs                   0                       # Number of Memory References (Count)
system.pc.bad_addr.power_state.pwrStateResidencyTicks::UNDEFINED  38134839600                       # Cumulative time (in ticks) in various power states (Tick)
system.pc.com_1.power_state.pwrStateResidencyTicks::UNDEFINED  38134839600                       # Cumulative time (in ticks) in various power states (Tick)
system.pc.default_bus.power_state.pwrStateResidencyTicks::UNDEFINED  38134839600                       # Cumulative time (in ticks) in various power states (Tick)
system.pc.empty_isa.power_state.pwrStateResidencyTicks::UNDEFINED  38134839600                       # Cumulative time (in ticks) in various power states (Tick)
system.pc.fake_com_2.power_state.pwrStateResidencyTicks::UNDEFINED  38134839600                       # Cumulative time (in ticks) in various power states (Tick)
system.pc.fake_com_3.power_state.pwrStateResidencyTicks::UNDEFINED  38134839600                       # Cumulative time (in ticks) in various power states (Tick)
system.pc.fake_com_4.power_state.pwrStateResidencyTicks::UNDEFINED  38134839600                       # Cumulative time (in ticks) in various power states (Tick)
system.pc.fake_floppy.power_state.pwrStateResidencyTicks::UNDEFINED  38134839600                       # Cumulative time (in ticks) in various power states (Tick)
system.pc.pci_host.power_state.pwrStateResidencyTicks::UNDEFINED  38134839600                       # Cumulative time (in ticks) in various power states (Tick)
system.pc.south_bridge.cmos.power_state.pwrStateResidencyTicks::UNDEFINED  38134839600                       # Cumulative time (in ticks) in various power states (Tick)
system.pc.south_bridge.dma1.power_state.pwrStateResidencyTicks::UNDEFINED  38134839600                       # Cumulative time (in ticks) in various power states (Tick)
system.pc.south_bridge.ide.disks0.IdeDisk.dmaReadFullPages            0                       # Number of full page size DMA reads (not PRD). (Count)
system.pc.south_bridge.ide.disks0.IdeDisk.dmaReadBytes            0                       # Number of bytes transfered via DMA reads (not PRD). (Byte)
system.pc.south_bridge.ide.disks0.IdeDisk.dmaReadTxs            0                       # Number of DMA read transactions (not PRD). (Count)
system.pc.south_bridge.ide.disks0.IdeDisk.dmaWriteFullPages            0                       # Number of full page size DMA writes. (Count)
system.pc.south_bridge.ide.disks0.IdeDisk.dmaWriteBytes            0                       # Number of bytes transfered via DMA writes. (Byte)
system.pc.south_bridge.ide.disks0.IdeDisk.dmaWriteTxs            0                       # Number of DMA write transactions. (Count)
system.pc.south_bridge.ide.disks1.IdeDisk.dmaReadFullPages            0                       # Number of full page size DMA reads (not PRD). (Count)
system.pc.south_bridge.ide.disks1.IdeDisk.dmaReadBytes            0                       # Number of bytes transfered via DMA reads (not PRD). (Byte)
system.pc.south_bridge.ide.disks1.IdeDisk.dmaReadTxs            0                       # Number of DMA read transactions (not PRD). (Count)
system.pc.south_bridge.ide.disks1.IdeDisk.dmaWriteFullPages            0                       # Number of full page size DMA writes. (Count)
system.pc.south_bridge.ide.disks1.IdeDisk.dmaWriteBytes            0                       # Number of bytes transfered via DMA writes. (Byte)
system.pc.south_bridge.ide.disks1.IdeDisk.dmaWriteTxs            0                       # Number of DMA write transactions. (Count)
system.pc.south_bridge.ide.power_state.pwrStateResidencyTicks::UNDEFINED  38134839600                       # Cumulative time (in ticks) in various power states (Tick)
system.pc.south_bridge.io_apic.power_state.pwrStateResidencyTicks::UNDEFINED  38134839600                       # Cumulative time (in ticks) in various power states (Tick)
system.pc.south_bridge.keyboard.power_state.pwrStateResidencyTicks::UNDEFINED  38134839600                       # Cumulative time (in ticks) in various power states (Tick)
system.pc.south_bridge.pic1.power_state.pwrStateResidencyTicks::UNDEFINED  38134839600                       # Cumulative time (in ticks) in various power states (Tick)
system.pc.south_bridge.pic2.power_state.pwrStateResidencyTicks::UNDEFINED  38134839600                       # Cumulative time (in ticks) in various power states (Tick)
system.pc.south_bridge.pit.power_state.pwrStateResidencyTicks::UNDEFINED  38134839600                       # Cumulative time (in ticks) in various power states (Tick)
system.pc.south_bridge.speaker.power_state.pwrStateResidencyTicks::UNDEFINED  38134839600                       # Cumulative time (in ticks) in various power states (Tick)
system.workload.inst.arm                            0                       # number of arm instructions executed (Count)
system.workload.inst.quiesce                        0                       # number of quiesce instructions executed (Count)

---------- End Simulation Statistics   ----------
