
---------- Begin Simulation Statistics ----------
simSeconds                                   0.035498                       # Number of seconds simulated (Second)
simTicks                                  35497905200                       # Number of ticks simulated (Tick)
finalTick                                104665202005800                       # Number of ticks from beginning of simulation (restored from checkpoints and never reset) (Tick)
simFreq                                  1000000000000                       # The number of ticks per simulated second ((Tick/Second))
hostSeconds                                  12877.02                       # Real time elapsed on the host (Second)
hostTickRate                                  2756686                       # The number of ticks simulated per host second (ticks/s) ((Tick/Second))
hostMemory                                   20022468                       # Number of bytes of host memory used (Byte)
simInsts                                    862437503                       # Number of instructions simulated (Count)
simOps                                     1805913699                       # Number of ops (including micro ops) simulated (Count)
hostInstRate                                    66975                       # Simulator instruction rate (inst/s) ((Count/Second))
hostOpRate                                     140243                       # Simulator op (including micro ops) rate (op/s) ((Count/Second))
system.caches.delayHistogram::bucket_size          256                       # delay histogram for all message (Unspecified)
system.caches.delayHistogram::max_bucket         2559                       # delay histogram for all message (Unspecified)
system.caches.delayHistogram::samples         9251656                       # delay histogram for all message (Unspecified)
system.caches.delayHistogram::mean           1.098139                       # delay histogram for all message (Unspecified)
system.caches.delayHistogram::stdev          2.939194                       # delay histogram for all message (Unspecified)
system.caches.delayHistogram             |     9251654    100.00%    100.00% |           0      0.00%    100.00% |           0      0.00%    100.00% |           0      0.00%    100.00% |           0      0.00%    100.00% |           1      0.00%    100.00% |           0      0.00%    100.00% |           0      0.00%    100.00% |           0      0.00%    100.00% |           1      0.00%    100.00% # delay histogram for all message (Unspecified)
system.caches.delayHistogram::total           9251656                       # delay histogram for all message (Unspecified)
system.caches.m_outstandReqHistSeqr::bucket_size            2                       (Unspecified)
system.caches.m_outstandReqHistSeqr::max_bucket           19                       (Unspecified)
system.caches.m_outstandReqHistSeqr::samples    405272723                       (Unspecified)
system.caches.m_outstandReqHistSeqr::mean     1.967951                       (Unspecified)
system.caches.m_outstandReqHistSeqr::gmean     1.737014                       (Unspecified)
system.caches.m_outstandReqHistSeqr::stdev     1.029857                       (Unspecified)
system.caches.m_outstandReqHistSeqr      |   158331313     39.07%     39.07% |   214406114     52.90%     91.97% |    29080079      7.18%     99.15% |     3410681      0.84%     99.99% |        7571      0.00%     99.99% |        3171      0.00%     99.99% |        5856      0.00%     99.99% |        8945      0.00%    100.00% |       18993      0.00%    100.00% |           0      0.00%    100.00% (Unspecified)
system.caches.m_outstandReqHistSeqr::total    405272723                       (Unspecified)
system.caches.m_latencyHistSeqr::bucket_size          512                       (Unspecified)
system.caches.m_latencyHistSeqr::max_bucket         5119                       (Unspecified)
system.caches.m_latencyHistSeqr::samples    405296814                       (Unspecified)
system.caches.m_latencyHistSeqr::mean        3.534988                       (Unspecified)
system.caches.m_latencyHistSeqr::gmean       1.022018                       (Unspecified)
system.caches.m_latencyHistSeqr::stdev      51.584762                       (Unspecified)
system.caches.m_latencyHistSeqr          |   404434073     99.79%     99.79% |      511529      0.13%     99.91% |      277035      0.07%     99.98% |       47653      0.01%     99.99% |       16494      0.00%    100.00% |        8912      0.00%    100.00% |        1007      0.00%    100.00% |          89      0.00%    100.00% |          20      0.00%    100.00% |           2      0.00%    100.00% (Unspecified)
system.caches.m_latencyHistSeqr::total      405296814                       (Unspecified)
system.caches.m_hitLatencyHistSeqr::bucket_size          512                       (Unspecified)
system.caches.m_hitLatencyHistSeqr::max_bucket         5119                       (Unspecified)
system.caches.m_hitLatencyHistSeqr::samples    403943215                       (Unspecified)
system.caches.m_hitLatencyHistSeqr::mean     1.001185                       (Unspecified)
system.caches.m_hitLatencyHistSeqr::gmean     1.000567                       (Unspecified)
system.caches.m_hitLatencyHistSeqr::stdev     0.650742                       (Unspecified)
system.caches.m_hitLatencyHistSeqr       |   403943081    100.00%    100.00% |          78      0.00%    100.00% |          42      0.00%    100.00% |           6      0.00%    100.00% |           5      0.00%    100.00% |           3      0.00%    100.00% |           0      0.00%    100.00% |           0      0.00%    100.00% |           0      0.00%    100.00% |           0      0.00%    100.00% (Unspecified)
system.caches.m_hitLatencyHistSeqr::total    403943215                       (Unspecified)
system.caches.m_missLatencyHistSeqr::bucket_size          512                       (Unspecified)
system.caches.m_missLatencyHistSeqr::max_bucket         5119                       (Unspecified)
system.caches.m_missLatencyHistSeqr::samples      1353599                       (Unspecified)
system.caches.m_missLatencyHistSeqr::mean   759.676542                       (Unspecified)
system.caches.m_missLatencyHistSeqr::gmean   573.647762                       (Unspecified)
system.caches.m_missLatencyHistSeqr::stdev   472.191788                       (Unspecified)
system.caches.m_missLatencyHistSeqr      |      490992     36.27%     36.27% |      511451     37.78%     74.06% |      276993     20.46%     94.52% |       47647      3.52%     98.04% |       16489      1.22%     99.26% |        8909      0.66%     99.92% |        1007      0.07%     99.99% |          89      0.01%    100.00% |          20      0.00%    100.00% |           2      0.00%    100.00% (Unspecified)
system.caches.m_missLatencyHistSeqr::total      1353599                       (Unspecified)
system.caches.delayVCHist.vnet_0::bucket_size          256                       # delay histogram for vnet_0 (Unspecified)
system.caches.delayVCHist.vnet_0::max_bucket         2559                       # delay histogram for vnet_0 (Unspecified)
system.caches.delayVCHist.vnet_0::samples      3913874                       # delay histogram for vnet_0 (Unspecified)
system.caches.delayVCHist.vnet_0::mean       2.568638                       # delay histogram for vnet_0 (Unspecified)
system.caches.delayVCHist.vnet_0::stdev      4.061803                       # delay histogram for vnet_0 (Unspecified)
system.caches.delayVCHist.vnet_0         |     3913872    100.00%    100.00% |           0      0.00%    100.00% |           0      0.00%    100.00% |           0      0.00%    100.00% |           0      0.00%    100.00% |           1      0.00%    100.00% |           0      0.00%    100.00% |           0      0.00%    100.00% |           0      0.00%    100.00% |           1      0.00%    100.00% # delay histogram for vnet_0 (Unspecified)
system.caches.delayVCHist.vnet_0::total       3913874                       # delay histogram for vnet_0 (Unspecified)
system.caches.delayVCHist.vnet_1::bucket_size            8                       # delay histogram for vnet_1 (Unspecified)
system.caches.delayVCHist.vnet_1::max_bucket           79                       # delay histogram for vnet_1 (Unspecified)
system.caches.delayVCHist.vnet_1::samples      5255613                       # delay histogram for vnet_1 (Unspecified)
system.caches.delayVCHist.vnet_1::mean       0.020214                       # delay histogram for vnet_1 (Unspecified)
system.caches.delayVCHist.vnet_1::stdev      0.360440                       # delay histogram for vnet_1 (Unspecified)
system.caches.delayVCHist.vnet_1         |     5253730     99.96%     99.96% |        1517      0.03%     99.99% |         282      0.01%    100.00% |          57      0.00%    100.00% |          25      0.00%    100.00% |           2      0.00%    100.00% |           0      0.00%    100.00% |           0      0.00%    100.00% |           0      0.00%    100.00% |           0      0.00%    100.00% # delay histogram for vnet_1 (Unspecified)
system.caches.delayVCHist.vnet_1::total       5255613                       # delay histogram for vnet_1 (Unspecified)
system.caches.delayVCHist.vnet_2::bucket_size            1                       # delay histogram for vnet_2 (Unspecified)
system.caches.delayVCHist.vnet_2::max_bucket            9                       # delay histogram for vnet_2 (Unspecified)
system.caches.delayVCHist.vnet_2::samples        82169                       # delay histogram for vnet_2 (Unspecified)
system.caches.delayVCHist.vnet_2::mean       0.000462                       # delay histogram for vnet_2 (Unspecified)
system.caches.delayVCHist.vnet_2::stdev      0.034883                       # delay histogram for vnet_2 (Unspecified)
system.caches.delayVCHist.vnet_2         |       82153     99.98%     99.98% |           0      0.00%     99.98% |          13      0.02%    100.00% |           0      0.00%    100.00% |           3      0.00%    100.00% |           0      0.00%    100.00% |           0      0.00%    100.00% |           0      0.00%    100.00% |           0      0.00%    100.00% |           0      0.00%    100.00% # delay histogram for vnet_2 (Unspecified)
system.caches.delayVCHist.vnet_2::total         82169                       # delay histogram for vnet_2 (Unspecified)
system.caches.L1Cache_Controller.Load    |    34319446     12.13%     12.13% |    37945002     13.41%     25.53% |    35026088     12.38%     37.91% |    35903912     12.69%     50.59% |    35129702     12.41%     63.00% |    34985933     12.36%     75.37% |    34736433     12.27%     87.64% |    34986336     12.36%    100.00% (Unspecified)
system.caches.L1Cache_Controller.Load::total    283032852                       (Unspecified)
system.caches.L1Cache_Controller.Ifetch  |     9312015     12.13%     12.13% |    10255546     13.36%     25.49% |     9497157     12.37%     37.86% |     9723262     12.67%     50.53% |     9518742     12.40%     62.93% |     9478954     12.35%     75.28% |     9498584     12.37%     87.65% |     9480983     12.35%    100.00% (Unspecified)
system.caches.L1Cache_Controller.Ifetch::total     76765243                       (Unspecified)
system.caches.L1Cache_Controller.Store   |     5414810     11.90%     11.90% |     5664302     12.45%     24.35% |     5888313     12.94%     37.29% |     5783662     12.71%     50.00% |     5579857     12.26%     62.27% |     5587059     12.28%     74.55% |     5930264     13.03%     87.58% |     5650458     12.42%    100.00% (Unspecified)
system.caches.L1Cache_Controller.Store::total     45498725                       (Unspecified)
system.caches.L1Cache_Controller.Inv     |       13746     17.25%     17.25% |       13372     16.78%     34.04% |        5588      7.01%     41.05% |        6399      8.03%     49.08% |       14315     17.97%     67.05% |       10514     13.20%     80.24% |        6539      8.21%     88.45% |        9203     11.55%    100.00% (Unspecified)
system.caches.L1Cache_Controller.Inv::total        79676                       (Unspecified)
system.caches.L1Cache_Controller.L1_Replacement |      147455     11.06%     11.06% |      125161      9.39%     20.44% |      198480     14.88%     35.33% |      171618     12.87%     48.20% |      157880     11.84%     60.04% |      160871     12.06%     72.10% |      203217     15.24%     87.34% |      168842     12.66%    100.00% (Unspecified)
system.caches.L1Cache_Controller.L1_Replacement::total      1333524                       (Unspecified)
system.caches.L1Cache_Controller.Fwd_GETX |          61      5.15%      5.15% |          35      2.96%      8.11% |         217     18.33%     26.44% |         119     10.05%     36.49% |          87      7.35%     43.83% |         168     14.19%     58.02% |         304     25.68%     83.70% |         193     16.30%    100.00% (Unspecified)
system.caches.L1Cache_Controller.Fwd_GETX::total         1184                       (Unspecified)
system.caches.L1Cache_Controller.Fwd_GETS |         499     38.12%     38.12% |         238     18.18%     56.30% |         127      9.70%     66.00% |          75      5.73%     71.73% |         138     10.54%     82.28% |          70      5.35%     87.62% |          92      7.03%     94.65% |          70      5.35%    100.00% (Unspecified)
system.caches.L1Cache_Controller.Fwd_GETS::total         1309                       (Unspecified)
system.caches.L1Cache_Controller.Data    |          13     65.00%     65.00% |           0      0.00%     65.00% |           2     10.00%     75.00% |           1      5.00%     80.00% |           0      0.00%     80.00% |           0      0.00%     80.00% |           3     15.00%     95.00% |           1      5.00%    100.00% (Unspecified)
system.caches.L1Cache_Controller.Data::total           20                       (Unspecified)
system.caches.L1Cache_Controller.Data_Exclusive |        2546     12.03%     12.03% |        1691      7.99%     20.02% |        3393     16.03%     36.06% |        2577     12.18%     48.23% |        2478     11.71%     59.95% |        2451     11.58%     71.53% |        3489     16.49%     88.02% |        2536     11.98%    100.00% (Unspecified)
system.caches.L1Cache_Controller.Data_Exclusive::total        21161                       (Unspecified)
system.caches.L1Cache_Controller.DataS_fromL1 |         198     15.13%     15.13% |         331     25.29%     40.41% |         171     13.06%     53.48% |         113      8.63%     62.11% |         198     15.13%     77.23% |         118      9.01%     86.25% |         121      9.24%     95.49% |          59      4.51%    100.00% (Unspecified)
system.caches.L1Cache_Controller.DataS_fromL1::total         1309                       (Unspecified)
system.caches.L1Cache_Controller.Data_all_Acks |      147601     11.09%     11.09% |      125393      9.42%     20.52% |      197317     14.83%     35.35% |      171317     12.88%     48.23% |      157533     11.84%     60.07% |      160650     12.07%     72.14% |      201967     15.18%     87.32% |      168667     12.68%    100.00% (Unspecified)
system.caches.L1Cache_Controller.Data_all_Acks::total      1330445                       (Unspecified)
system.caches.L1Cache_Controller.Ack     |        1211     68.89%     68.89% |          46      2.62%     71.50% |          84      4.78%     76.28% |          97      5.52%     81.80% |          83      4.72%     86.52% |          66      3.75%     90.27% |         105      5.97%     96.25% |          66      3.75%    100.00% (Unspecified)
system.caches.L1Cache_Controller.Ack::total         1758                       (Unspecified)
system.caches.L1Cache_Controller.Ack_all |         270     39.47%     39.47% |          30      4.39%     43.86% |          73     10.67%     54.53% |          74     10.82%     65.35% |          50      7.31%     72.66% |          57      8.33%     80.99% |          76     11.11%     92.11% |          54      7.89%    100.00% (Unspecified)
system.caches.L1Cache_Controller.Ack_all::total          684                       (Unspecified)
system.caches.L1Cache_Controller.WB_Ack  |      126315     10.10%     10.10% |      112556      9.00%     19.10% |      193344     15.46%     34.56% |      165858     13.26%     47.83% |      144124     11.53%     59.35% |      150972     12.07%     71.42% |      197127     15.76%     87.19% |      160215     12.81%    100.00% (Unspecified)
system.caches.L1Cache_Controller.WB_Ack::total      1250511                       (Unspecified)
system.caches.L1Cache_Controller.NP.Load |        2426     10.70%     10.70% |        1618      7.14%     17.84% |        3766     16.62%     34.46% |        2853     12.59%     47.05% |        2599     11.47%     58.52% |        2652     11.70%     70.22% |        3977     17.55%     87.77% |        2772     12.23%    100.00% (Unspecified)
system.caches.L1Cache_Controller.NP.Load::total        22663                       (Unspecified)
system.caches.L1Cache_Controller.NP.Ifetch |       12288     44.02%     44.02% |        2175      7.79%     51.81% |        2232      8.00%     59.80% |        2360      8.45%     68.26% |        2464      8.83%     77.08% |        2251      8.06%     85.15% |        1858      6.66%     91.80% |        2288      8.20%    100.00% (Unspecified)
system.caches.L1Cache_Controller.NP.Ifetch::total        27916                       (Unspecified)
system.caches.L1Cache_Controller.NP.Store |      133099     10.36%     10.36% |      121546      9.46%     19.82% |      192654     15.00%     34.82% |      166598     12.97%     47.79% |      153009     11.91%     59.70% |      156151     12.16%     71.86% |      197517     15.38%     87.23% |      163975     12.77%    100.00% (Unspecified)
system.caches.L1Cache_Controller.NP.Store::total      1284549                       (Unspecified)
system.caches.L1Cache_Controller.NP.Inv  |        1730     25.71%     25.71% |         601      8.93%     34.65% |         796     11.83%     46.48% |         789     11.73%     58.20% |         764     11.36%     69.56% |         706     10.49%     80.05% |         625      9.29%     89.34% |         717     10.66%    100.00% (Unspecified)
system.caches.L1Cache_Controller.NP.Inv::total         6728                       (Unspecified)
system.caches.L1Cache_Controller.I.Load  |         939     13.32%     13.32% |         922     13.07%     26.39% |         839     11.90%     38.29% |         857     12.15%     50.44% |         903     12.80%     63.24% |         885     12.55%     75.79% |         831     11.78%     87.58% |         876     12.42%    100.00% (Unspecified)
system.caches.L1Cache_Controller.I.Load::total         7052                       (Unspecified)
system.caches.L1Cache_Controller.I.Ifetch |        1214     13.99%     13.99% |         906     10.44%     24.42% |        1160     13.36%     37.79% |        1107     12.75%     50.54% |         984     11.34%     61.88% |        1034     11.91%     73.79% |        1172     13.50%     87.29% |        1103     12.71%    100.00% (Unspecified)
system.caches.L1Cache_Controller.I.Ifetch::total         8680                       (Unspecified)
system.caches.L1Cache_Controller.I.Store |         393     18.89%     18.89% |         249     11.97%     30.85% |         233     11.20%     42.05% |         233     11.20%     53.24% |         251     12.06%     65.31% |         246     11.82%     77.13% |         226     10.86%     87.99% |         250     12.01%    100.00% (Unspecified)
system.caches.L1Cache_Controller.I.Store::total         2081                       (Unspecified)
system.caches.L1Cache_Controller.I.L1_Replacement |        9169     17.15%     17.15% |       10355     19.36%     36.51% |        2421      4.53%     41.04% |        3160      5.91%     46.95% |       11142     20.84%     67.79% |        7454     13.94%     81.73% |        3670      6.86%     88.59% |        6102     11.41%    100.00% (Unspecified)
system.caches.L1Cache_Controller.I.L1_Replacement::total        53473                       (Unspecified)
system.caches.L1Cache_Controller.S.Load  |    28142614     12.02%     12.02% |    30992690     13.24%     25.26% |    29120103     12.44%     37.69% |    29828858     12.74%     50.43% |    29058738     12.41%     62.84% |    29090055     12.42%     75.27% |    28825386     12.31%     87.58% |    29089947     12.42%    100.00% (Unspecified)
system.caches.L1Cache_Controller.S.Load::total    234148391                       (Unspecified)
system.caches.L1Cache_Controller.S.Ifetch |     9298513     12.12%     12.12% |    10252465     13.36%     25.48% |     9493765     12.37%     37.85% |     9719795     12.67%     50.52% |     9515294     12.40%     62.92% |     9475669     12.35%     75.27% |     9495554     12.38%     87.65% |     9477592     12.35%    100.00% (Unspecified)
system.caches.L1Cache_Controller.S.Ifetch::total     76728647                       (Unspecified)
system.caches.L1Cache_Controller.S.Store |         257     38.70%     38.70% |          30      4.52%     43.22% |          71     10.69%     53.92% |          73     10.99%     64.91% |          50      7.53%     72.44% |          57      8.58%     81.02% |          73     10.99%     92.02% |          53      7.98%    100.00% (Unspecified)
system.caches.L1Cache_Controller.S.Store::total          664                       (Unspecified)
system.caches.L1Cache_Controller.S.Inv   |        2448     14.54%     14.54% |        1994     11.84%     26.38% |        2056     12.21%     38.59% |        2108     12.52%     51.11% |        2030     12.06%     63.17% |        2026     12.03%     75.20% |        2074     12.32%     87.52% |        2102     12.48%    100.00% (Unspecified)
system.caches.L1Cache_Controller.S.Inv::total        16838                       (Unspecified)
system.caches.L1Cache_Controller.S.L1_Replacement |       11971     40.52%     40.52% |        2250      7.62%     48.14% |        2715      9.19%     57.33% |        2600      8.80%     66.13% |        2614      8.85%     74.98% |        2445      8.28%     83.26% |        2420      8.19%     91.45% |        2525      8.55%    100.00% (Unspecified)
system.caches.L1Cache_Controller.S.L1_Replacement::total        29540                       (Unspecified)
system.caches.L1Cache_Controller.E.Load  |      329484     32.04%     32.04% |      495366     48.16%     80.20% |       10062      0.98%     81.18% |        8789      0.85%     82.03% |      157374     15.30%     97.33% |        8282      0.81%     98.14% |       10458      1.02%     99.16% |        8672      0.84%    100.00% (Unspecified)
system.caches.L1Cache_Controller.E.Load::total      1028487                       (Unspecified)
system.caches.L1Cache_Controller.E.Store |         944     10.37%     10.37% |         646      7.09%     17.46% |        1565     17.18%     34.64% |        1083     11.89%     46.54% |        1118     12.28%     58.81% |        1095     12.02%     70.84% |        1564     17.17%     88.01% |        1092     11.99%    100.00% (Unspecified)
system.caches.L1Cache_Controller.E.Store::total         9107                       (Unspecified)
system.caches.L1Cache_Controller.E.Inv   |         334     14.25%     14.25% |         330     14.08%     28.33% |         276     11.77%     40.10% |         260     11.09%     51.19% |         324     13.82%     65.02% |         276     11.77%     76.79% |         264     11.26%     88.05% |         280     11.95%    100.00% (Unspecified)
system.caches.L1Cache_Controller.E.Inv::total         2344                       (Unspecified)
system.caches.L1Cache_Controller.E.L1_Replacement |        1018     10.74%     10.74% |         605      6.38%     17.12% |        1575     16.62%     33.74% |        1231     12.99%     46.73% |        1042     10.99%     57.72% |        1164     12.28%     70.00% |        1663     17.55%     87.55% |        1180     12.45%    100.00% (Unspecified)
system.caches.L1Cache_Controller.E.L1_Replacement::total         9478                       (Unspecified)
system.caches.L1Cache_Controller.E.Fwd_GETX |           3      8.57%      8.57% |           4     11.43%     20.00% |           5     14.29%     34.29% |           5     14.29%     48.57% |           6     17.14%     65.71% |           5     14.29%     80.00% |           2      5.71%     85.71% |           5     14.29%    100.00% (Unspecified)
system.caches.L1Cache_Controller.E.Fwd_GETX::total           35                       (Unspecified)
system.caches.L1Cache_Controller.E.Fwd_GETS |         214     32.33%     32.33% |         207     31.27%     63.60% |          62      9.37%     72.96% |          23      3.47%     76.44% |          90     13.60%     90.03% |          22      3.32%     93.35% |          25      3.78%     97.13% |          19      2.87%    100.00% (Unspecified)
system.caches.L1Cache_Controller.E.Fwd_GETS::total          662                       (Unspecified)
system.caches.L1Cache_Controller.M.Load  |     5843983     12.22%     12.22% |     6454406     13.50%     25.71% |     5891318     12.32%     38.03% |     6062555     12.68%     50.71% |     5910088     12.36%     63.07% |     5884059     12.30%     75.37% |     5895781     12.33%     87.70% |     5884069     12.30%    100.00% (Unspecified)
system.caches.L1Cache_Controller.M.Load::total     47826259                       (Unspecified)
system.caches.L1Cache_Controller.M.Store |     5280117     11.95%     11.95% |     5541831     12.54%     24.48% |     5693790     12.88%     37.36% |     5615675     12.70%     50.07% |     5425429     12.27%     62.34% |     5429510     12.28%     74.63% |     5730884     12.97%     87.59% |     5485088     12.41%    100.00% (Unspecified)
system.caches.L1Cache_Controller.M.Store::total     44202324                       (Unspecified)
system.caches.L1Cache_Controller.M.Inv   |        9234     17.18%     17.18% |       10447     19.43%     36.61% |        2458      4.57%     41.19% |        3240      6.03%     47.21% |       11195     20.83%     68.04% |        7504     13.96%     82.00% |        3574      6.65%     88.65% |        6102     11.35%    100.00% (Unspecified)
system.caches.L1Cache_Controller.M.Inv::total        53754                       (Unspecified)
system.caches.L1Cache_Controller.M.L1_Replacement |      125297     10.10%     10.10% |      111951      9.02%     19.12% |      191769     15.45%     34.57% |      164627     13.27%     47.83% |      143082     11.53%     59.36% |      149808     12.07%     71.44% |      195464     15.75%     87.19% |      159035     12.81%    100.00% (Unspecified)
system.caches.L1Cache_Controller.M.L1_Replacement::total      1241033                       (Unspecified)
system.caches.L1Cache_Controller.M.Fwd_GETX |          58      5.05%      5.05% |          31      2.70%      7.75% |         212     18.45%     26.20% |         114      9.92%     36.12% |          81      7.05%     43.17% |         163     14.19%     57.35% |         302     26.28%     83.64% |         188     16.36%    100.00% (Unspecified)
system.caches.L1Cache_Controller.M.Fwd_GETX::total         1149                       (Unspecified)
system.caches.L1Cache_Controller.M.Fwd_GETS |         285     44.05%     44.05% |          31      4.79%     48.84% |          65     10.05%     58.89% |          52      8.04%     66.92% |          48      7.42%     74.34% |          48      7.42%     81.76% |          67     10.36%     92.12% |          51      7.88%    100.00% (Unspecified)
system.caches.L1Cache_Controller.M.Fwd_GETS::total          647                       (Unspecified)
system.caches.L1Cache_Controller.IS.Inv  |           0      0.00%      0.00% |           0      0.00%      0.00% |           2     16.67%     16.67% |           2     16.67%     33.33% |           2     16.67%     50.00% |           2     16.67%     66.67% |           2     16.67%     83.33% |           2     16.67%    100.00% (Unspecified)
system.caches.L1Cache_Controller.IS.Inv::total           12                       (Unspecified)
system.caches.L1Cache_Controller.IS.Data_Exclusive |        2546     12.03%     12.03% |        1691      7.99%     20.02% |        3393     16.03%     36.06% |        2577     12.18%     48.23% |        2478     11.71%     59.95% |        2451     11.58%     71.53% |        3489     16.49%     88.02% |        2536     11.98%    100.00% (Unspecified)
system.caches.L1Cache_Controller.IS.Data_Exclusive::total        21161                       (Unspecified)
system.caches.L1Cache_Controller.IS.DataS_fromL1 |         198     15.13%     15.13% |         331     25.29%     40.41% |         171     13.06%     53.48% |         113      8.63%     62.11% |         198     15.13%     77.23% |         118      9.01%     86.25% |         121      9.24%     95.49% |          59      4.51%    100.00% (Unspecified)
system.caches.L1Cache_Controller.IS.DataS_fromL1::total         1309                       (Unspecified)
system.caches.L1Cache_Controller.IS.Data_all_Acks |       14123     32.22%     32.22% |        3599      8.21%     40.43% |        4431     10.11%     50.54% |        4485     10.23%     60.78% |        4272      9.75%     70.52% |        4251      9.70%     80.22% |        4226      9.64%     89.87% |        4442     10.13%    100.00% (Unspecified)
system.caches.L1Cache_Controller.IS.Data_all_Acks::total        43829                       (Unspecified)
system.caches.L1Cache_Controller.IM.Data |          13     65.00%     65.00% |           0      0.00%     65.00% |           2     10.00%     75.00% |           1      5.00%     80.00% |           0      0.00%     80.00% |           0      0.00%     80.00% |           3     15.00%     95.00% |           1      5.00%    100.00% (Unspecified)
system.caches.L1Cache_Controller.IM.Data::total           20                       (Unspecified)
system.caches.L1Cache_Controller.IM.Data_all_Acks |      133478     10.37%     10.37% |      121794      9.47%     19.84% |      192884     14.99%     34.83% |      166830     12.97%     47.80% |      153259     11.91%     59.71% |      156397     12.16%     71.87% |      197739     15.37%     87.24% |      164223     12.76%    100.00% (Unspecified)
system.caches.L1Cache_Controller.IM.Data_all_Acks::total      1286604                       (Unspecified)
system.caches.L1Cache_Controller.SM.Ack  |        1211     68.89%     68.89% |          46      2.62%     71.50% |          84      4.78%     76.28% |          97      5.52%     81.80% |          83      4.72%     86.52% |          66      3.75%     90.27% |         105      5.97%     96.25% |          66      3.75%    100.00% (Unspecified)
system.caches.L1Cache_Controller.SM.Ack::total         1758                       (Unspecified)
system.caches.L1Cache_Controller.SM.Ack_all |         270     39.47%     39.47% |          30      4.39%     43.86% |          73     10.67%     54.53% |          74     10.82%     65.35% |          50      7.31%     72.66% |          57      8.33%     80.99% |          76     11.11%     92.11% |          54      7.89%    100.00% (Unspecified)
system.caches.L1Cache_Controller.SM.Ack_all::total          684                       (Unspecified)
system.caches.L1Cache_Controller.IS_I.Data_all_Acks |           0      0.00%      0.00% |           0      0.00%      0.00% |           2     16.67%     16.67% |           2     16.67%     33.33% |           2     16.67%     50.00% |           2     16.67%     66.67% |           2     16.67%     83.33% |           2     16.67%    100.00% (Unspecified)
system.caches.L1Cache_Controller.IS_I.Data_all_Acks::total           12                       (Unspecified)
system.caches.L1Cache_Controller.M_I.WB_Ack |      126315     10.10%     10.10% |      112556      9.00%     19.10% |      193344     15.46%     34.56% |      165858     13.26%     47.83% |      144124     11.53%     59.35% |      150972     12.07%     71.42% |      197127     15.76%     87.19% |      160215     12.81%    100.00% (Unspecified)
system.caches.L1Cache_Controller.M_I.WB_Ack::total      1250511                       (Unspecified)
system.caches.Directory_Controller.Fetch |        4189      0.33%      0.33% |     1281073     99.67%    100.00% (Unspecified)
system.caches.Directory_Controller.Fetch::total      1285262                       (Unspecified)
system.caches.Directory_Controller.Data  |         249      0.02%      0.02% |     1272494     99.98%    100.00% (Unspecified)
system.caches.Directory_Controller.Data::total      1272743                       (Unspecified)
system.caches.Directory_Controller.Memory_Data |        4189      0.33%      0.33% |     1281068     99.67%    100.00% (Unspecified)
system.caches.Directory_Controller.Memory_Data::total      1285257                       (Unspecified)
system.caches.Directory_Controller.Memory_Ack |         249      0.02%      0.02% |     1272493     99.98%    100.00% (Unspecified)
system.caches.Directory_Controller.Memory_Ack::total      1272742                       (Unspecified)
system.caches.Directory_Controller.CleanReplacement |        4229     33.78%     33.78% |        8290     66.22%    100.00% (Unspecified)
system.caches.Directory_Controller.CleanReplacement::total        12519                       (Unspecified)
system.caches.Directory_Controller.I.Fetch |        4189      0.33%      0.33% |     1281073     99.67%    100.00% (Unspecified)
system.caches.Directory_Controller.I.Fetch::total      1285262                       (Unspecified)
system.caches.Directory_Controller.M.Data |         249      0.02%      0.02% |     1272494     99.98%    100.00% (Unspecified)
system.caches.Directory_Controller.M.Data::total      1272743                       (Unspecified)
system.caches.Directory_Controller.M.CleanReplacement |        4229     33.78%     33.78% |        8290     66.22%    100.00% (Unspecified)
system.caches.Directory_Controller.M.CleanReplacement::total        12519                       (Unspecified)
system.caches.Directory_Controller.IM.Memory_Data |        4189      0.33%      0.33% |     1281068     99.67%    100.00% (Unspecified)
system.caches.Directory_Controller.IM.Memory_Data::total      1285257                       (Unspecified)
system.caches.Directory_Controller.MI.Memory_Ack |         249      0.02%      0.02% |     1272493     99.98%    100.00% (Unspecified)
system.caches.Directory_Controller.MI.Memory_Ack::total      1272742                       (Unspecified)
system.caches.L2Cache_Controller.L1_GET_INSTR |        4516     12.33%     12.33% |        4868     13.29%     25.62% |        3704     10.11%     35.74% |        3613      9.87%     45.60% |        4073     11.12%     56.72% |        5354     14.62%     71.34% |        5784     15.79%     87.13% |        4712     12.87%    100.00% (Unspecified)
system.caches.L2Cache_Controller.L1_GET_INSTR::total        36624                       (Unspecified)
system.caches.L2Cache_Controller.L1_GETS |        4729     15.75%     15.75% |        3824     12.74%     28.49% |        3645     12.14%     40.63% |        3541     11.79%     52.42% |        3451     11.49%     63.92% |        3259     10.85%     74.77% |        3640     12.12%     86.89% |        3935     13.11%    100.00% (Unspecified)
system.caches.L2Cache_Controller.L1_GETS::total        30024                       (Unspecified)
system.caches.L2Cache_Controller.L1_GETX |      161038     12.52%     12.52% |      160921     12.51%     25.02% |      160560     12.48%     37.50% |      160737     12.49%     49.99% |      160752     12.49%     62.49% |      161054     12.52%     75.00% |      160856     12.50%     87.51% |      160746     12.49%    100.00% (Unspecified)
system.caches.L2Cache_Controller.L1_GETX::total      1286664                       (Unspecified)
system.caches.L2Cache_Controller.L1_UPGRADE |         140     20.59%     20.59% |          71     10.44%     31.03% |          54      7.94%     38.97% |          36      5.29%     44.26% |          77     11.32%     55.59% |          66      9.71%     65.29% |         163     23.97%     89.26% |          73     10.74%    100.00% (Unspecified)
system.caches.L2Cache_Controller.L1_UPGRADE::total          680                       (Unspecified)
system.caches.L2Cache_Controller.L1_PUTX |      156539     12.52%     12.52% |      156366     12.50%     25.02% |      156281     12.50%     37.52% |      156248     12.49%     50.01% |      156303     12.50%     62.51% |      156251     12.49%     75.01% |      156183     12.49%     87.50% |      156340     12.50%    100.00% (Unspecified)
system.caches.L2Cache_Controller.L1_PUTX::total      1250511                       (Unspecified)
system.caches.L2Cache_Controller.L2_Replacement |      152769     12.52%     12.52% |      152552     12.50%     25.01% |      152540     12.50%     37.51% |      152481     12.49%     50.00% |      152526     12.50%     62.50% |      152596     12.50%     75.00% |      152549     12.50%     87.50% |      152636     12.50%    100.00% (Unspecified)
system.caches.L2Cache_Controller.L2_Replacement::total      1220649                       (Unspecified)
system.caches.L2Cache_Controller.L2_Replacement_clean |        8059     12.47%     12.47% |        8126     12.58%     25.05% |        7843     12.14%     37.19% |        8085     12.51%     49.70% |        8035     12.44%     62.14% |        8210     12.71%     74.84% |        8103     12.54%     87.38% |        8153     12.62%    100.00% (Unspecified)
system.caches.L2Cache_Controller.L2_Replacement_clean::total        64614                       (Unspecified)
system.caches.L2Cache_Controller.Mem_Data |      160827     12.51%     12.51% |      160677     12.50%     25.01% |      160381     12.48%     37.49% |      160565     12.49%     49.99% |      160561     12.49%     62.48% |      160806     12.51%     74.99% |      160651     12.50%     87.49% |      160789     12.51%    100.00% (Unspecified)
system.caches.L2Cache_Controller.Mem_Data::total      1285257                       (Unspecified)
system.caches.L2Cache_Controller.Mem_Ack |      160828     12.51%     12.51% |      160678     12.50%     25.01% |      160383     12.48%     37.49% |      160565     12.49%     49.99% |      160561     12.49%     62.48% |      160806     12.51%     74.99% |      160651     12.50%     87.49% |      160789     12.51%    100.00% (Unspecified)
system.caches.L2Cache_Controller.Mem_Ack::total      1285261                       (Unspecified)
system.caches.L2Cache_Controller.WB_Data |        6815     12.53%     12.53% |        6725     12.36%     24.89% |        6510     11.97%     36.86% |        6799     12.50%     49.35% |        6714     12.34%     61.70% |        7037     12.94%     74.63% |        6938     12.75%     87.38% |        6863     12.62%    100.00% (Unspecified)
system.caches.L2Cache_Controller.WB_Data::total        54401                       (Unspecified)
system.caches.L2Cache_Controller.WB_Data_clean |         131     19.79%     19.79% |          87     13.14%     32.93% |          85     12.84%     45.77% |          69     10.42%     56.19% |          76     11.48%     67.67% |          53      8.01%     75.68% |          77     11.63%     87.31% |          84     12.69%    100.00% (Unspecified)
system.caches.L2Cache_Controller.WB_Data_clean::total          662                       (Unspecified)
system.caches.L2Cache_Controller.Ack     |        2413     14.12%     14.12% |        2153     12.60%     26.71% |        2087     12.21%     38.92% |        1970     11.53%     50.45% |        2161     12.64%     63.09% |        2119     12.40%     75.49% |        2053     12.01%     87.50% |        2137     12.50%    100.00% (Unspecified)
system.caches.L2Cache_Controller.Ack::total        17093                       (Unspecified)
system.caches.L2Cache_Controller.Ack_all |         969     13.74%     13.74% |         985     13.97%     27.71% |         844     11.97%     39.68% |         813     11.53%     51.21% |         887     12.58%     63.79% |         808     11.46%     75.25% |         857     12.15%     87.41% |         888     12.59%    100.00% (Unspecified)
system.caches.L2Cache_Controller.Ack_all::total         7051                       (Unspecified)
system.caches.L2Cache_Controller.Unblock |         271     20.70%     20.70% |         152     11.61%     32.31% |         140     10.70%     43.01% |         110      8.40%     51.41% |         149     11.38%     62.80% |         118      9.01%     71.81% |         218     16.65%     88.46% |         151     11.54%    100.00% (Unspecified)
system.caches.L2Cache_Controller.Unblock::total         1309                       (Unspecified)
system.caches.L2Cache_Controller.Exclusive_Unblock |      163880     12.52%     12.52% |      163679     12.51%     25.03% |      163181     12.47%     37.51% |      163415     12.49%     49.99% |      163475     12.49%     62.49% |      163647     12.51%     75.00% |      163564     12.50%     87.50% |      163608     12.50%    100.00% (Unspecified)
system.caches.L2Cache_Controller.Exclusive_Unblock::total      1308449                       (Unspecified)
system.caches.L2Cache_Controller.NP.L1_GET_INSTR |         480     12.73%     12.73% |         475     12.60%     25.33% |         454     12.04%     37.37% |         461     12.23%     49.60% |         481     12.76%     62.36% |         483     12.81%     75.17% |         472     12.52%     87.69% |         464     12.31%    100.00% (Unspecified)
system.caches.L2Cache_Controller.NP.L1_GET_INSTR::total         3770                       (Unspecified)
system.caches.L2Cache_Controller.NP.L1_GETS |        2187     12.91%     12.91% |        2131     12.58%     25.50% |        2073     12.24%     37.74% |        2121     12.53%     50.27% |        2061     12.17%     62.44% |        2030     11.99%     74.42% |        2052     12.12%     86.54% |        2279     13.46%    100.00% (Unspecified)
system.caches.L2Cache_Controller.NP.L1_GETS::total        16934                       (Unspecified)
system.caches.L2Cache_Controller.NP.L1_GETX |      158161     12.51%     12.51% |      158072     12.50%     25.01% |      157856     12.48%     37.49% |      157984     12.49%     49.98% |      158019     12.50%     62.48% |      158293     12.52%     75.00% |      158128     12.50%     87.50% |      158046     12.50%    100.00% (Unspecified)
system.caches.L2Cache_Controller.NP.L1_GETX::total      1264559                       (Unspecified)
system.caches.L2Cache_Controller.SS.L1_GET_INSTR |        3952     12.34%     12.34% |        4313     13.46%     25.80% |        3163      9.87%     35.67% |        3022      9.43%     45.10% |        3462     10.81%     55.91% |        4798     14.98%     70.88% |        5203     16.24%     87.12% |        4125     12.88%    100.00% (Unspecified)
system.caches.L2Cache_Controller.SS.L1_GET_INSTR::total        32038                       (Unspecified)
system.caches.L2Cache_Controller.SS.L1_GETS |        1610     24.07%     24.07% |         891     13.32%     37.40% |         837     12.51%     49.91% |         653      9.76%     59.67% |         597      8.93%     68.60% |         545      8.15%     76.75% |         710     10.62%     87.37% |         845     12.63%    100.00% (Unspecified)
system.caches.L2Cache_Controller.SS.L1_GETS::total         6688                       (Unspecified)
system.caches.L2Cache_Controller.SS.L1_GETX |          12     60.00%     60.00% |           0      0.00%     60.00% |           0      0.00%     60.00% |           3     15.00%     75.00% |           4     20.00%     95.00% |           0      0.00%     95.00% |           1      5.00%    100.00% |           0      0.00%    100.00% (Unspecified)
system.caches.L2Cache_Controller.SS.L1_GETX::total           20                       (Unspecified)
system.caches.L2Cache_Controller.SS.L1_UPGRADE |         140     21.08%     21.08% |          71     10.69%     31.78% |          54      8.13%     39.91% |          35      5.27%     45.18% |          77     11.60%     56.78% |          66      9.94%     66.72% |         148     22.29%     89.01% |          73     10.99%    100.00% (Unspecified)
system.caches.L2Cache_Controller.SS.L1_UPGRADE::total          664                       (Unspecified)
system.caches.L2Cache_Controller.SS.L2_Replacement |           4      7.84%      7.84% |           2      3.92%     11.76% |          10     19.61%     31.37% |          11     21.57%     52.94% |           4      7.84%     60.78% |           3      5.88%     66.67% |          13     25.49%     92.16% |           4      7.84%    100.00% (Unspecified)
system.caches.L2Cache_Controller.SS.L2_Replacement::total           51                       (Unspecified)
system.caches.L2Cache_Controller.SS.L2_Replacement_clean |         639     13.72%     13.72% |         593     12.74%     26.46% |         575     12.35%     38.81% |         566     12.16%     50.97% |         577     12.39%     63.36% |         566     12.16%     75.52% |         561     12.05%     87.56% |         579     12.44%    100.00% (Unspecified)
system.caches.L2Cache_Controller.SS.L2_Replacement_clean::total         4656                       (Unspecified)
system.caches.L2Cache_Controller.M.L1_GET_INSTR |           7     16.28%     16.28% |           8     18.60%     34.88% |           5     11.63%     46.51% |           1      2.33%     48.84% |           2      4.65%     53.49% |           7     16.28%     69.77% |           6     13.95%     83.72% |           7     16.28%    100.00% (Unspecified)
system.caches.L2Cache_Controller.M.L1_GET_INSTR::total           43                       (Unspecified)
system.caches.L2Cache_Controller.M.L1_GETS |         543     12.46%     12.46% |         579     13.29%     25.75% |         514     11.79%     37.54% |         549     12.60%     50.14% |         599     13.74%     63.88% |         513     11.77%     75.65% |         522     11.98%     87.63% |         539     12.37%    100.00% (Unspecified)
system.caches.L2Cache_Controller.M.L1_GETS::total         4358                       (Unspecified)
system.caches.L2Cache_Controller.M.L1_GETX |        2682     12.85%     12.85% |        2664     12.77%     25.62% |        2567     12.30%     37.92% |        2578     12.35%     50.28% |        2576     12.34%     62.62% |        2611     12.51%     75.13% |        2590     12.41%     87.54% |        2599     12.46%    100.00% (Unspecified)
system.caches.L2Cache_Controller.M.L1_GETX::total        20867                       (Unspecified)
system.caches.L2Cache_Controller.M.L2_Replacement |      152487     12.51%     12.51% |      152320     12.50%     25.01% |      152363     12.50%     37.51% |      152297     12.49%     50.00% |      152334     12.50%     62.50% |      152369     12.50%     75.00% |      152345     12.50%     87.50% |      152408     12.50%    100.00% (Unspecified)
system.caches.L2Cache_Controller.M.L2_Replacement::total      1218923                       (Unspecified)
system.caches.L2Cache_Controller.M.L2_Replacement_clean |         697     12.59%     12.59% |         713     12.88%     25.47% |         721     13.03%     38.50% |         698     12.61%     51.11% |         699     12.63%     63.74% |         657     11.87%     75.61% |         653     11.80%     87.41% |         697     12.59%    100.00% (Unspecified)
system.caches.L2Cache_Controller.M.L2_Replacement_clean::total         5535                       (Unspecified)
system.caches.L2Cache_Controller.MT.L1_GETS |         271     20.70%     20.70% |         152     11.61%     32.31% |         140     10.70%     43.01% |         110      8.40%     51.41% |         149     11.38%     62.80% |         118      9.01%     71.81% |         218     16.65%     88.46% |         151     11.54%    100.00% (Unspecified)
system.caches.L2Cache_Controller.MT.L1_GETS::total         1309                       (Unspecified)
system.caches.L2Cache_Controller.MT.L1_GETX |         177     14.95%     14.95% |         179     15.12%     30.07% |         135     11.40%     41.47% |         168     14.19%     55.66% |         150     12.67%     68.33% |         145     12.25%     80.57% |         133     11.23%     91.81% |          97      8.19%    100.00% (Unspecified)
system.caches.L2Cache_Controller.MT.L1_GETX::total         1184                       (Unspecified)
system.caches.L2Cache_Controller.MT.L1_PUTX |      156539     12.52%     12.52% |      156366     12.50%     25.02% |      156281     12.50%     37.52% |      156248     12.49%     50.01% |      156303     12.50%     62.51% |      156251     12.49%     75.01% |      156183     12.49%     87.50% |      156340     12.50%    100.00% (Unspecified)
system.caches.L2Cache_Controller.MT.L1_PUTX::total      1250511                       (Unspecified)
system.caches.L2Cache_Controller.MT.L2_Replacement |         278     16.60%     16.60% |         230     13.73%     30.33% |         167      9.97%     40.30% |         173     10.33%     50.63% |         188     11.22%     61.85% |         224     13.37%     75.22% |         191     11.40%     86.63% |         224     13.37%    100.00% (Unspecified)
system.caches.L2Cache_Controller.MT.L2_Replacement::total         1675                       (Unspecified)
system.caches.L2Cache_Controller.MT.L2_Replacement_clean |        6723     12.35%     12.35% |        6820     12.53%     24.88% |        6547     12.03%     36.91% |        6821     12.53%     49.45% |        6759     12.42%     61.87% |        6987     12.84%     74.71% |        6889     12.66%     87.36% |        6877     12.64%    100.00% (Unspecified)
system.caches.L2Cache_Controller.MT.L2_Replacement_clean::total        54423                       (Unspecified)
system.caches.L2Cache_Controller.M_I.L1_GET_INSTR |           3     10.71%     10.71% |           1      3.57%     14.29% |           2      7.14%     21.43% |           4     14.29%     35.71% |           8     28.57%     64.29% |           1      3.57%     67.86% |           4     14.29%     82.14% |           5     17.86%    100.00% (Unspecified)
system.caches.L2Cache_Controller.M_I.L1_GET_INSTR::total           28                       (Unspecified)
system.caches.L2Cache_Controller.M_I.L1_GETS |          17      9.94%      9.94% |          17      9.94%     19.88% |          31     18.13%     38.01% |          32     18.71%     56.73% |          14      8.19%     64.91% |          19     11.11%     76.02% |          16      9.36%     85.38% |          25     14.62%    100.00% (Unspecified)
system.caches.L2Cache_Controller.M_I.L1_GETS::total          171                       (Unspecified)
system.caches.L2Cache_Controller.M_I.L1_GETX |           3      9.68%      9.68% |           6     19.35%     29.03% |           2      6.45%     35.48% |           4     12.90%     48.39% |           3      9.68%     58.06% |           5     16.13%     74.19% |           4     12.90%     87.10% |           4     12.90%    100.00% (Unspecified)
system.caches.L2Cache_Controller.M_I.L1_GETX::total           31                       (Unspecified)
system.caches.L2Cache_Controller.M_I.Mem_Ack |      160828     12.51%     12.51% |      160678     12.50%     25.01% |      160383     12.48%     37.49% |      160565     12.49%     49.99% |      160561     12.49%     62.48% |      160806     12.51%     74.99% |      160651     12.50%     87.49% |      160789     12.51%    100.00% (Unspecified)
system.caches.L2Cache_Controller.M_I.Mem_Ack::total      1285261                       (Unspecified)
system.caches.L2Cache_Controller.MT_I.WB_Data |         272     16.40%     16.40% |         228     13.74%     30.14% |         166     10.01%     40.14% |         173     10.43%     50.57% |         185     11.15%     61.72% |         223     13.44%     75.17% |         189     11.39%     86.56% |         223     13.44%    100.00% (Unspecified)
system.caches.L2Cache_Controller.MT_I.WB_Data::total         1659                       (Unspecified)
system.caches.L2Cache_Controller.MT_I.Ack_all |           6     37.50%     37.50% |           2     12.50%     50.00% |           1      6.25%     56.25% |           0      0.00%     56.25% |           3     18.75%     75.00% |           1      6.25%     81.25% |           2     12.50%     93.75% |           1      6.25%    100.00% (Unspecified)
system.caches.L2Cache_Controller.MT_I.Ack_all::total           16                       (Unspecified)
system.caches.L2Cache_Controller.MCT_I.WB_Data |        6403     12.29%     12.29% |        6432     12.35%     24.64% |        6289     12.07%     36.71% |        6585     12.64%     49.35% |        6456     12.39%     61.74% |        6749     12.96%     74.70% |        6608     12.68%     87.38% |        6573     12.62%    100.00% (Unspecified)
system.caches.L2Cache_Controller.MCT_I.WB_Data::total        52095                       (Unspecified)
system.caches.L2Cache_Controller.MCT_I.Ack_all |         320     13.75%     13.75% |         388     16.67%     30.41% |         258     11.08%     41.49% |         236     10.14%     51.63% |         303     13.02%     64.65% |         238     10.22%     74.87% |         281     12.07%     86.94% |         304     13.06%    100.00% (Unspecified)
system.caches.L2Cache_Controller.MCT_I.Ack_all::total         2328                       (Unspecified)
system.caches.L2Cache_Controller.I_I.Ack |        2405     14.17%     14.17% |        2151     12.67%     26.84% |        2067     12.18%     39.01% |        1941     11.43%     50.44% |        2152     12.68%     63.12% |        2110     12.43%     75.55% |        2035     11.99%     87.54% |        2116     12.46%    100.00% (Unspecified)
system.caches.L2Cache_Controller.I_I.Ack::total        16977                       (Unspecified)
system.caches.L2Cache_Controller.I_I.Ack_all |         639     13.72%     13.72% |         593     12.74%     26.46% |         575     12.35%     38.81% |         566     12.16%     50.97% |         577     12.39%     63.36% |         566     12.16%     75.52% |         561     12.05%     87.56% |         579     12.44%    100.00% (Unspecified)
system.caches.L2Cache_Controller.I_I.Ack_all::total         4656                       (Unspecified)
system.caches.L2Cache_Controller.S_I.Ack |           8      6.90%      6.90% |           2      1.72%      8.62% |          20     17.24%     25.86% |          29     25.00%     50.86% |           9      7.76%     58.62% |           9      7.76%     66.38% |          18     15.52%     81.90% |          21     18.10%    100.00% (Unspecified)
system.caches.L2Cache_Controller.S_I.Ack::total          116                       (Unspecified)
system.caches.L2Cache_Controller.S_I.Ack_all |           4      7.84%      7.84% |           2      3.92%     11.76% |          10     19.61%     31.37% |          11     21.57%     52.94% |           4      7.84%     60.78% |           3      5.88%     66.67% |          13     25.49%     92.16% |           4      7.84%    100.00% (Unspecified)
system.caches.L2Cache_Controller.S_I.Ack_all::total           51                       (Unspecified)
system.caches.L2Cache_Controller.ISS.L1_GETS |          21     16.03%     16.03% |          16     12.21%     28.24% |          16     12.21%     40.46% |          22     16.79%     57.25% |          11      8.40%     65.65% |          11      8.40%     74.05% |           9      6.87%     80.92% |          25     19.08%    100.00% (Unspecified)
system.caches.L2Cache_Controller.ISS.L1_GETS::total          131                       (Unspecified)
system.caches.L2Cache_Controller.ISS.Mem_Data |        2166     12.89%     12.89% |        2115     12.59%     25.48% |        2057     12.24%     37.72% |        2099     12.49%     50.21% |        2050     12.20%     62.41% |        2019     12.02%     74.43% |        2043     12.16%     86.59% |        2254     13.41%    100.00% (Unspecified)
system.caches.L2Cache_Controller.ISS.Mem_Data::total        16803                       (Unspecified)
system.caches.L2Cache_Controller.IS.L1_GET_INSTR |          74      9.93%      9.93% |          71      9.53%     19.46% |          80     10.74%     30.20% |         125     16.78%     46.98% |         120     16.11%     63.09% |          65      8.72%     71.81% |          99     13.29%     85.10% |         111     14.90%    100.00% (Unspecified)
system.caches.L2Cache_Controller.IS.L1_GET_INSTR::total          745                       (Unspecified)
system.caches.L2Cache_Controller.IS.L1_GETS |          61     20.68%     20.68% |          35     11.86%     32.54% |          33     11.19%     43.73% |          50     16.95%     60.68% |          19      6.44%     67.12% |          20      6.78%     73.90% |          21      7.12%     81.02% |          56     18.98%    100.00% (Unspecified)
system.caches.L2Cache_Controller.IS.L1_GETS::total          295                       (Unspecified)
system.caches.L2Cache_Controller.IS.Mem_Data |         501     12.84%     12.84% |         491     12.59%     25.43% |         470     12.05%     37.48% |         483     12.38%     49.86% |         492     12.61%     62.47% |         494     12.66%     75.13% |         481     12.33%     87.46% |         489     12.54%    100.00% (Unspecified)
system.caches.L2Cache_Controller.IS.Mem_Data::total         3901                       (Unspecified)
system.caches.L2Cache_Controller.IM.L1_GETX |           2    100.00%    100.00% |           0      0.00%    100.00% |           0      0.00%    100.00% |           0      0.00%    100.00% |           0      0.00%    100.00% |           0      0.00%    100.00% |           0      0.00%    100.00% |           0      0.00%    100.00% (Unspecified)
system.caches.L2Cache_Controller.IM.L1_GETX::total            2                       (Unspecified)
system.caches.L2Cache_Controller.IM.Mem_Data |      158160     12.51%     12.51% |      158071     12.50%     25.01% |      157854     12.48%     37.49% |      157983     12.49%     49.98% |      158019     12.50%     62.48% |      158293     12.52%     75.00% |      158127     12.50%     87.50% |      158046     12.50%    100.00% (Unspecified)
system.caches.L2Cache_Controller.IM.Mem_Data::total      1264553                       (Unspecified)
system.caches.L2Cache_Controller.SS_MB.L1_GETS |           0      0.00%      0.00% |           0      0.00%      0.00% |           0      0.00%      0.00% |           0      0.00%      0.00% |           0      0.00%      0.00% |           0      0.00%      0.00% |          60     89.55%     89.55% |           7     10.45%    100.00% (Unspecified)
system.caches.L2Cache_Controller.SS_MB.L1_GETS::total           67                       (Unspecified)
system.caches.L2Cache_Controller.SS_MB.Exclusive_Unblock |         152     22.22%     22.22% |          71     10.38%     32.60% |          54      7.89%     40.50% |          38      5.56%     46.05% |          81     11.84%     57.89% |          66      9.65%     67.54% |         149     21.78%     89.33% |          73     10.67%    100.00% (Unspecified)
system.caches.L2Cache_Controller.SS_MB.Exclusive_Unblock::total          684                       (Unspecified)
system.caches.L2Cache_Controller.MT_MB.L1_GETS |           8     66.67%     66.67% |           0      0.00%     66.67% |           1      8.33%     75.00% |           2     16.67%     91.67% |           0      0.00%     91.67% |           1      8.33%    100.00% |           0      0.00%    100.00% |           0      0.00%    100.00% (Unspecified)
system.caches.L2Cache_Controller.MT_MB.L1_GETS::total           12                       (Unspecified)
system.caches.L2Cache_Controller.MT_MB.L1_GETX |           1    100.00%    100.00% |           0      0.00%    100.00% |           0      0.00%    100.00% |           0      0.00%    100.00% |           0      0.00%    100.00% |           0      0.00%    100.00% |           0      0.00%    100.00% |           0      0.00%    100.00% (Unspecified)
system.caches.L2Cache_Controller.MT_MB.L1_GETX::total            1                       (Unspecified)
system.caches.L2Cache_Controller.MT_MB.Exclusive_Unblock |      163728     12.52%     12.52% |      163608     12.51%     25.03% |      163127     12.47%     37.50% |      163377     12.49%     50.00% |      163394     12.49%     62.49% |      163581     12.51%     75.00% |      163415     12.50%     87.50% |      163535     12.50%    100.00% (Unspecified)
system.caches.L2Cache_Controller.MT_MB.Exclusive_Unblock::total      1307765                       (Unspecified)
system.caches.L2Cache_Controller.MT_IIB.L1_GETS |           7     13.73%     13.73% |           1      1.96%     15.69% |           0      0.00%     15.69% |           2      3.92%     19.61% |           0      0.00%     19.61% |           2      3.92%     23.53% |          31     60.78%     84.31% |           8     15.69%    100.00% (Unspecified)
system.caches.L2Cache_Controller.MT_IIB.L1_GETS::total           51                       (Unspecified)
system.caches.L2Cache_Controller.MT_IIB.WB_Data |         140     21.81%     21.81% |          65     10.12%     31.93% |          52      8.10%     40.03% |          39      6.07%     46.11% |          73     11.37%     57.48% |          65     10.12%     67.60% |         141     21.96%     89.56% |          67     10.44%    100.00% (Unspecified)
system.caches.L2Cache_Controller.MT_IIB.WB_Data::total          642                       (Unspecified)
system.caches.L2Cache_Controller.MT_IIB.WB_Data_clean |         131     19.79%     19.79% |          87     13.14%     32.93% |          85     12.84%     45.77% |          69     10.42%     56.19% |          76     11.48%     67.67% |          53      8.01%     75.68% |          77     11.63%     87.31% |          84     12.69%    100.00% (Unspecified)
system.caches.L2Cache_Controller.MT_IIB.WB_Data_clean::total          662                       (Unspecified)
system.caches.L2Cache_Controller.MT_IIB.Unblock |           0      0.00%      0.00% |           0      0.00%      0.00% |           3     60.00%     60.00% |           2     40.00%    100.00% |           0      0.00%    100.00% |           0      0.00%    100.00% |           0      0.00%    100.00% |           0      0.00%    100.00% (Unspecified)
system.caches.L2Cache_Controller.MT_IIB.Unblock::total            5                       (Unspecified)
system.caches.L2Cache_Controller.MT_IB.WB_Data |           0      0.00%      0.00% |           0      0.00%      0.00% |           3     60.00%     60.00% |           2     40.00%    100.00% |           0      0.00%    100.00% |           0      0.00%    100.00% |           0      0.00%    100.00% |           0      0.00%    100.00% (Unspecified)
system.caches.L2Cache_Controller.MT_IB.WB_Data::total            5                       (Unspecified)
system.caches.L2Cache_Controller.MT_SB.L1_GETS |           4     50.00%     50.00% |           2     25.00%     75.00% |           0      0.00%     75.00% |           0      0.00%     75.00% |           1     12.50%     87.50% |           0      0.00%     87.50% |           1     12.50%    100.00% |           0      0.00%    100.00% (Unspecified)
system.caches.L2Cache_Controller.MT_SB.L1_GETS::total            8                       (Unspecified)
system.caches.L2Cache_Controller.MT_SB.L1_UPGRADE |           0      0.00%      0.00% |           0      0.00%      0.00% |           0      0.00%      0.00% |           1      6.25%      6.25% |           0      0.00%      6.25% |           0      0.00%      6.25% |          15     93.75%    100.00% |           0      0.00%    100.00% (Unspecified)
system.caches.L2Cache_Controller.MT_SB.L1_UPGRADE::total           16                       (Unspecified)
system.caches.L2Cache_Controller.MT_SB.Unblock |         271     20.78%     20.78% |         152     11.66%     32.44% |         137     10.51%     42.94% |         108      8.28%     51.23% |         149     11.43%     62.65% |         118      9.05%     71.70% |         218     16.72%     88.42% |         151     11.58%    100.00% (Unspecified)
system.caches.L2Cache_Controller.MT_SB.Unblock::total         1304                       (Unspecified)
system.caches.RequestType.LD.latency_hist_seqr::bucket_size          512                       (Unspecified)
system.caches.RequestType.LD.latency_hist_seqr::max_bucket         5119                       (Unspecified)
system.caches.RequestType.LD.latency_hist_seqr::samples    283032852                       (Unspecified)
system.caches.RequestType.LD.latency_hist_seqr::mean     1.060507                       (Unspecified)
system.caches.RequestType.LD.latency_hist_seqr::gmean     1.000539                       (Unspecified)
system.caches.RequestType.LD.latency_hist_seqr::stdev     8.504227                       (Unspecified)
system.caches.RequestType.LD.latency_hist_seqr |   283017811     99.99%     99.99% |        7607      0.00%    100.00% |        5852      0.00%    100.00% |         989      0.00%    100.00% |         352      0.00%    100.00% |         215      0.00%    100.00% |          26      0.00%    100.00% |           0      0.00%    100.00% |           0      0.00%    100.00% |           0      0.00%    100.00% (Unspecified)
system.caches.RequestType.LD.latency_hist_seqr::total    283032852                       (Unspecified)
system.caches.RequestType.LD.hit_latency_hist_seqr::bucket_size            1                       (Unspecified)
system.caches.RequestType.LD.hit_latency_hist_seqr::max_bucket            9                       (Unspecified)
system.caches.RequestType.LD.hit_latency_hist_seqr::samples    283003137                       (Unspecified)
system.caches.RequestType.LD.hit_latency_hist_seqr::mean     1.000001                       (Unspecified)
system.caches.RequestType.LD.hit_latency_hist_seqr::gmean     1.000001                       (Unspecified)
system.caches.RequestType.LD.hit_latency_hist_seqr::stdev     0.000982                       (Unspecified)
system.caches.RequestType.LD.hit_latency_hist_seqr |           0      0.00%      0.00% |   283002864    100.00%    100.00% |         273      0.00%    100.00% |           0      0.00%    100.00% |           0      0.00%    100.00% |           0      0.00%    100.00% |           0      0.00%    100.00% |           0      0.00%    100.00% |           0      0.00%    100.00% |           0      0.00%    100.00% (Unspecified)
system.caches.RequestType.LD.hit_latency_hist_seqr::total    283003137                       (Unspecified)
system.caches.RequestType.LD.miss_latency_hist_seqr::bucket_size          512                       (Unspecified)
system.caches.RequestType.LD.miss_latency_hist_seqr::max_bucket         5119                       (Unspecified)
system.caches.RequestType.LD.miss_latency_hist_seqr::samples        29715                       (Unspecified)
system.caches.RequestType.LD.miss_latency_hist_seqr::mean   577.313310                       (Unspecified)
system.caches.RequestType.LD.miss_latency_hist_seqr::gmean   168.226326                       (Unspecified)
system.caches.RequestType.LD.miss_latency_hist_seqr::stdev   597.301921                       (Unspecified)
system.caches.RequestType.LD.miss_latency_hist_seqr |       14674     49.38%     49.38% |        7607     25.60%     74.98% |        5852     19.69%     94.68% |         989      3.33%     98.00% |         352      1.18%     99.19% |         215      0.72%     99.91% |          26      0.09%    100.00% |           0      0.00%    100.00% |           0      0.00%    100.00% |           0      0.00%    100.00% (Unspecified)
system.caches.RequestType.LD.miss_latency_hist_seqr::total        29715                       (Unspecified)
system.caches.RequestType.ST.latency_hist_seqr::bucket_size          512                       (Unspecified)
system.caches.RequestType.ST.latency_hist_seqr::max_bucket         5119                       (Unspecified)
system.caches.RequestType.ST.latency_hist_seqr::samples     45461140                       (Unspecified)
system.caches.RequestType.ST.latency_hist_seqr::mean    23.153353                       (Unspecified)
system.caches.RequestType.ST.latency_hist_seqr::gmean     1.206996                       (Unspecified)
system.caches.RequestType.ST.latency_hist_seqr::stdev   150.963032                       (Unspecified)
system.caches.RequestType.ST.latency_hist_seqr |    44615033     98.14%     98.14% |      502944      1.11%     99.25% |      270700      0.60%     99.84% |       46593      0.10%     99.94% |       16109      0.04%     99.98% |        8672      0.02%    100.00% |         978      0.00%    100.00% |          89      0.00%    100.00% |          20      0.00%    100.00% |           2      0.00%    100.00% (Unspecified)
system.caches.RequestType.ST.latency_hist_seqr::total     45461140                       (Unspecified)
system.caches.RequestType.ST.hit_latency_hist_seqr::bucket_size          512                       (Unspecified)
system.caches.RequestType.ST.hit_latency_hist_seqr::max_bucket         5119                       (Unspecified)
system.caches.RequestType.ST.hit_latency_hist_seqr::samples     44176091                       (Unspecified)
system.caches.RequestType.ST.hit_latency_hist_seqr::mean     1.008395                       (Unspecified)
system.caches.RequestType.ST.hit_latency_hist_seqr::gmean     1.005144                       (Unspecified)
system.caches.RequestType.ST.hit_latency_hist_seqr::stdev     1.055638                       (Unspecified)
system.caches.RequestType.ST.hit_latency_hist_seqr |    44176049    100.00%    100.00% |          27      0.00%    100.00% |          11      0.00%    100.00% |           1      0.00%    100.00% |           2      0.00%    100.00% |           1      0.00%    100.00% |           0      0.00%    100.00% |           0      0.00%    100.00% |           0      0.00%    100.00% |           0      0.00%    100.00% (Unspecified)
system.caches.RequestType.ST.hit_latency_hist_seqr::total     44176091                       (Unspecified)
system.caches.RequestType.ST.miss_latency_hist_seqr::bucket_size          512                       (Unspecified)
system.caches.RequestType.ST.miss_latency_hist_seqr::max_bucket         5119                       (Unspecified)
system.caches.RequestType.ST.miss_latency_hist_seqr::samples      1285049                       (Unspecified)
system.caches.RequestType.ST.miss_latency_hist_seqr::mean   784.429914                       (Unspecified)
system.caches.RequestType.ST.miss_latency_hist_seqr::gmean   651.467718                       (Unspecified)
system.caches.RequestType.ST.miss_latency_hist_seqr::stdev   458.035787                       (Unspecified)
system.caches.RequestType.ST.miss_latency_hist_seqr |      438984     34.16%     34.16% |      502917     39.14%     73.30% |      270689     21.06%     94.36% |       46592      3.63%     97.99% |       16107      1.25%     99.24% |        8671      0.67%     99.92% |         978      0.08%     99.99% |          89      0.01%    100.00% |          20      0.00%    100.00% |           2      0.00%    100.00% (Unspecified)
system.caches.RequestType.ST.miss_latency_hist_seqr::total      1285049                       (Unspecified)
system.caches.RequestType.IFETCH.latency_hist_seqr::bucket_size          512                       (Unspecified)
system.caches.RequestType.IFETCH.latency_hist_seqr::max_bucket         5119                       (Unspecified)
system.caches.RequestType.IFETCH.latency_hist_seqr::samples     76765243                       (Unspecified)
system.caches.RequestType.IFETCH.latency_hist_seqr::mean     1.025466                       (Unspecified)
system.caches.RequestType.IFETCH.latency_hist_seqr::gmean     1.001411                       (Unspecified)
system.caches.RequestType.IFETCH.latency_hist_seqr::stdev     3.492633                       (Unspecified)
system.caches.RequestType.IFETCH.latency_hist_seqr |    76764752    100.00%    100.00% |         299      0.00%    100.00% |         142      0.00%    100.00% |          29      0.00%    100.00% |           6      0.00%    100.00% |          15      0.00%    100.00% |           0      0.00%    100.00% |           0      0.00%    100.00% |           0      0.00%    100.00% |           0      0.00%    100.00% (Unspecified)
system.caches.RequestType.IFETCH.latency_hist_seqr::total     76765243                       (Unspecified)
system.caches.RequestType.IFETCH.hit_latency_hist_seqr::bucket_size            1                       (Unspecified)
system.caches.RequestType.IFETCH.hit_latency_hist_seqr::max_bucket            9                       (Unspecified)
system.caches.RequestType.IFETCH.hit_latency_hist_seqr::samples     76728647                       (Unspecified)
system.caches.RequestType.IFETCH.hit_latency_hist_seqr::mean            1                       (Unspecified)
system.caches.RequestType.IFETCH.hit_latency_hist_seqr::gmean            1                       (Unspecified)
system.caches.RequestType.IFETCH.hit_latency_hist_seqr |           0      0.00%      0.00% |    76728647    100.00%    100.00% |           0      0.00%    100.00% |           0      0.00%    100.00% |           0      0.00%    100.00% |           0      0.00%    100.00% |           0      0.00%    100.00% |           0      0.00%    100.00% |           0      0.00%    100.00% |           0      0.00%    100.00% (Unspecified)
system.caches.RequestType.IFETCH.hit_latency_hist_seqr::total     76728647                       (Unspecified)
system.caches.RequestType.IFETCH.miss_latency_hist_seqr::bucket_size          512                       (Unspecified)
system.caches.RequestType.IFETCH.miss_latency_hist_seqr::max_bucket         5119                       (Unspecified)
system.caches.RequestType.IFETCH.miss_latency_hist_seqr::samples        36596                       (Unspecified)
system.caches.RequestType.IFETCH.miss_latency_hist_seqr::mean    54.419199                       (Unspecified)
system.caches.RequestType.IFETCH.miss_latency_hist_seqr::gmean    19.258495                       (Unspecified)
system.caches.RequestType.IFETCH.miss_latency_hist_seqr::stdev   150.785975                       (Unspecified)
system.caches.RequestType.IFETCH.miss_latency_hist_seqr |       36105     98.66%     98.66% |         299      0.82%     99.48% |         142      0.39%     99.86% |          29      0.08%     99.94% |           6      0.02%     99.96% |          15      0.04%    100.00% |           0      0.00%    100.00% |           0      0.00%    100.00% |           0      0.00%    100.00% |           0      0.00%    100.00% (Unspecified)
system.caches.RequestType.IFETCH.miss_latency_hist_seqr::total        36596                       (Unspecified)
system.caches.RequestType.RMW_Read.latency_hist_seqr::bucket_size          512                       (Unspecified)
system.caches.RequestType.RMW_Read.latency_hist_seqr::max_bucket         5119                       (Unspecified)
system.caches.RequestType.RMW_Read.latency_hist_seqr::samples        27209                       (Unspecified)
system.caches.RequestType.RMW_Read.latency_hist_seqr::mean    39.978169                       (Unspecified)
system.caches.RequestType.RMW_Read.latency_hist_seqr::gmean     1.492058                       (Unspecified)
system.caches.RequestType.RMW_Read.latency_hist_seqr::stdev   201.791996                       (Unspecified)
system.caches.RequestType.RMW_Read.latency_hist_seqr |       26243     96.45%     96.45% |         600      2.21%     98.65% |         295      1.08%     99.74% |          35      0.13%     99.87% |          25      0.09%     99.96% |           9      0.03%     99.99% |           2      0.01%    100.00% |           0      0.00%    100.00% |           0      0.00%    100.00% |           0      0.00%    100.00% (Unspecified)
system.caches.RequestType.RMW_Read.latency_hist_seqr::total        27209                       (Unspecified)
system.caches.RequestType.RMW_Read.hit_latency_hist_seqr::bucket_size          512                       (Unspecified)
system.caches.RequestType.RMW_Read.hit_latency_hist_seqr::max_bucket         5119                       (Unspecified)
system.caches.RequestType.RMW_Read.hit_latency_hist_seqr::samples        25660                       (Unspecified)
system.caches.RequestType.RMW_Read.hit_latency_hist_seqr::mean     5.196960                       (Unspecified)
system.caches.RequestType.RMW_Read.hit_latency_hist_seqr::gmean     1.090502                       (Unspecified)
system.caches.RequestType.RMW_Read.hit_latency_hist_seqr::stdev    68.776485                       (Unspecified)
system.caches.RequestType.RMW_Read.hit_latency_hist_seqr |       25568     99.64%     99.64% |          51      0.20%     99.84% |          31      0.12%     99.96% |           5      0.02%     99.98% |           3      0.01%     99.99% |           2      0.01%    100.00% |           0      0.00%    100.00% |           0      0.00%    100.00% |           0      0.00%    100.00% |           0      0.00%    100.00% (Unspecified)
system.caches.RequestType.RMW_Read.hit_latency_hist_seqr::total        25660                       (Unspecified)
system.caches.RequestType.RMW_Read.miss_latency_hist_seqr::bucket_size          512                       (Unspecified)
system.caches.RequestType.RMW_Read.miss_latency_hist_seqr::max_bucket         5119                       (Unspecified)
system.caches.RequestType.RMW_Read.miss_latency_hist_seqr::samples         1549                       (Unspecified)
system.caches.RequestType.RMW_Read.miss_latency_hist_seqr::mean   616.147192                       (Unspecified)
system.caches.RequestType.RMW_Read.miss_latency_hist_seqr::gmean   268.742516                       (Unspecified)
system.caches.RequestType.RMW_Read.miss_latency_hist_seqr::stdev   533.910348                       (Unspecified)
system.caches.RequestType.RMW_Read.miss_latency_hist_seqr |         675     43.58%     43.58% |         549     35.44%     79.02% |         264     17.04%     96.06% |          30      1.94%     98.00% |          22      1.42%     99.42% |           7      0.45%     99.87% |           2      0.13%    100.00% |           0      0.00%    100.00% |           0      0.00%    100.00% |           0      0.00%    100.00% (Unspecified)
system.caches.RequestType.RMW_Read.miss_latency_hist_seqr::total         1549                       (Unspecified)
system.caches.RequestType.Locked_RMW_Read.latency_hist_seqr::bucket_size          512                       (Unspecified)
system.caches.RequestType.Locked_RMW_Read.latency_hist_seqr::max_bucket         5119                       (Unspecified)
system.caches.RequestType.Locked_RMW_Read.latency_hist_seqr::samples         5185                       (Unspecified)
system.caches.RequestType.Locked_RMW_Read.latency_hist_seqr::mean    32.830087                       (Unspecified)
system.caches.RequestType.Locked_RMW_Read.latency_hist_seqr::gmean     1.697638                       (Unspecified)
system.caches.RequestType.Locked_RMW_Read.latency_hist_seqr::stdev   181.028865                       (Unspecified)
system.caches.RequestType.Locked_RMW_Read.latency_hist_seqr |        5049     97.38%     97.38% |          79      1.52%     98.90% |          46      0.89%     99.79% |           7      0.14%     99.92% |           2      0.04%     99.96% |           1      0.02%     99.98% |           1      0.02%    100.00% |           0      0.00%    100.00% |           0      0.00%    100.00% |           0      0.00%    100.00% (Unspecified)
system.caches.RequestType.Locked_RMW_Read.latency_hist_seqr::total         5185                       (Unspecified)
[...]
system.o3Cpu7.iew.lsqFullEvents              38510889                       # Number of times the LSQ has become full, causing a stall (Count)
system.o3Cpu7.iew.memOrderViolationEvents          666                       # Number of memory order violations (Count)
system.o3Cpu7.iew.predictedTakenIncorrect         2639                       # Number of branches that were predicted taken incorrectly (Count)
system.o3Cpu7.iew.predictedNotTakenIncorrect         1681                       # Number of branches that were predicted not taken incorrectly (Count)
system.o3Cpu7.iew.branchMispredicts              4320                       # Number of branch mispredicts detected at execute (Count)
system.o3Cpu7.iew.instsToCommit             223757572                       # Cumulative count of insts sent to commit (Count)
system.o3Cpu7.iew.writebackCount            223756836                       # Cumulative count of insts written-back (Count)
system.o3Cpu7.iew.producerInst              195097251                       # Number of instructions producing a value (Count)
system.o3Cpu7.iew.consumerInst              312693941                       # Number of instructions consuming a value (Count)
system.o3Cpu7.iew.wbRate                     1.403813                       # Insts written-back per cycle ((Count/Cycle))
system.o3Cpu7.iew.wbFanout                   0.623924                       # Average fanout of values written-back ((Count/Count))
system.o3Cpu7.interrupts.clk_domain.clock         3200                       # Clock period in ticks (Tick)
system.o3Cpu7.lsq0.forwLoads                   493750                       # Number of loads that had data forwarded from stores (Count)
system.o3Cpu7.lsq0.squashedLoads                10503                       # Number of loads squashed (Count)
system.o3Cpu7.lsq0.ignoredResponses                22                       # Number of memory responses ignored because the instruction is squashed (Count)
system.o3Cpu7.lsq0.memOrderViolation              666                       # Number of memory ordering violations (Count)
system.o3Cpu7.lsq0.squashedStores                6602                       # Number of stores squashed (Count)
system.o3Cpu7.lsq0.rescheduledLoads                32                       # Number of loads that were rescheduled (Count)
system.o3Cpu7.lsq0.blockedByCache                1507                       # Number of times an access to memory failed due to the cache being blocked (Count)
system.o3Cpu7.lsq0.loadToUse::samples        50846991                       # Distribution of cycle latency between the first time a load is issued and its completion (Unspecified)
system.o3Cpu7.lsq0.loadToUse::mean           3.143984                       # Distribution of cycle latency between the first time a load is issued and its completion (Unspecified)
system.o3Cpu7.lsq0.loadToUse::stdev         12.397307                       # Distribution of cycle latency between the first time a load is issued and its completion (Unspecified)
system.o3Cpu7.lsq0.loadToUse::0-9            50838983     99.98%     99.98% # Distribution of cycle latency between the first time a load is issued and its completion (Unspecified)
system.o3Cpu7.lsq0.loadToUse::10-19              1162      0.00%     99.99% # Distribution of cycle latency between the first time a load is issued and its completion (Unspecified)
system.o3Cpu7.lsq0.loadToUse::20-29               439      0.00%     99.99% # Distribution of cycle latency between the first time a load is issued and its completion (Unspecified)
system.o3Cpu7.lsq0.loadToUse::30-39               102      0.00%     99.99% # Distribution of cycle latency between the first time a load is issued and its completion (Unspecified)
system.o3Cpu7.lsq0.loadToUse::40-49               158      0.00%     99.99% # Distribution of cycle latency between the first time a load is issued and its completion (Unspecified)
system.o3Cpu7.lsq0.loadToUse::50-59                50      0.00%     99.99% # Distribution of cycle latency between the first time a load is issued and its completion (Unspecified)
system.o3Cpu7.lsq0.loadToUse::60-69                23      0.00%     99.99% # Distribution of cycle latency between the first time a load is issued and its completion (Unspecified)
system.o3Cpu7.lsq0.loadToUse::70-79                20      0.00%     99.99% # Distribution of cycle latency between the first time a load is issued and its completion (Unspecified)
system.o3Cpu7.lsq0.loadToUse::80-89                23      0.00%     99.99% # Distribution of cycle latency between the first time a load is issued and its completion (Unspecified)
system.o3Cpu7.lsq0.loadToUse::90-99                17      0.00%     99.99% # Distribution of cycle latency between the first time a load is issued and its completion (Unspecified)
system.o3Cpu7.lsq0.loadToUse::100-109              29      0.00%     99.99% # Distribution of cycle latency between the first time a load is issued and its completion (Unspecified)
system.o3Cpu7.lsq0.loadToUse::110-119              10      0.00%     99.99% # Distribution of cycle latency between the first time a load is issued and its completion (Unspecified)
system.o3Cpu7.lsq0.loadToUse::120-129               6      0.00%     99.99% # Distribution of cycle latency between the first time a load is issued and its completion (Unspecified)
system.o3Cpu7.lsq0.loadToUse::130-139              11      0.00%     99.99% # Distribution of cycle latency between the first time a load is issued and its completion (Unspecified)
system.o3Cpu7.lsq0.loadToUse::140-149             100      0.00%     99.99% # Distribution of cycle latency between the first time a load is issued and its completion (Unspecified)
system.o3Cpu7.lsq0.loadToUse::150-159               5      0.00%     99.99% # Distribution of cycle latency between the first time a load is issued and its completion (Unspecified)
system.o3Cpu7.lsq0.loadToUse::160-169               4      0.00%     99.99% # Distribution of cycle latency between the first time a load is issued and its completion (Unspecified)
system.o3Cpu7.lsq0.loadToUse::170-179               2      0.00%     99.99% # Distribution of cycle latency between the first time a load is issued and its completion (Unspecified)
system.o3Cpu7.lsq0.loadToUse::180-189              28      0.00%     99.99% # Distribution of cycle latency between the first time a load is issued and its completion (Unspecified)
system.o3Cpu7.lsq0.loadToUse::190-199              50      0.00%     99.99% # Distribution of cycle latency between the first time a load is issued and its completion (Unspecified)
system.o3Cpu7.lsq0.loadToUse::200-209               3      0.00%     99.99% # Distribution of cycle latency between the first time a load is issued and its completion (Unspecified)
system.o3Cpu7.lsq0.loadToUse::220-229               1      0.00%     99.99% # Distribution of cycle latency between the first time a load is issued and its completion (Unspecified)
system.o3Cpu7.lsq0.loadToUse::230-239               7      0.00%     99.99% # Distribution of cycle latency between the first time a load is issued and its completion (Unspecified)
system.o3Cpu7.lsq0.loadToUse::240-249               9      0.00%     99.99% # Distribution of cycle latency between the first time a load is issued and its completion (Unspecified)
system.o3Cpu7.lsq0.loadToUse::250-259               6      0.00%     99.99% # Distribution of cycle latency between the first time a load is issued and its completion (Unspecified)
system.o3Cpu7.lsq0.loadToUse::260-269               6      0.00%     99.99% # Distribution of cycle latency between the first time a load is issued and its completion (Unspecified)
system.o3Cpu7.lsq0.loadToUse::270-279               6      0.00%     99.99% # Distribution of cycle latency between the first time a load is issued and its completion (Unspecified)
system.o3Cpu7.lsq0.loadToUse::280-289               5      0.00%     99.99% # Distribution of cycle latency between the first time a load is issued and its completion (Unspecified)
system.o3Cpu7.lsq0.loadToUse::290-299              14      0.00%     99.99% # Distribution of cycle latency between the first time a load is issued and its completion (Unspecified)
system.o3Cpu7.lsq0.loadToUse::overflows          5712      0.01%    100.00% # Distribution of cycle latency between the first time a load is issued and its completion (Unspecified)
system.o3Cpu7.lsq0.loadToUse::min_value             2                       # Distribution of cycle latency between the first time a load is issued and its completion (Unspecified)
system.o3Cpu7.lsq0.loadToUse::max_value          3594                       # Distribution of cycle latency between the first time a load is issued and its completion (Unspecified)
system.o3Cpu7.lsq0.loadToUse::total          50846991                       # Distribution of cycle latency between the first time a load is issued and its completion (Unspecified)
system.o3Cpu7.mmu.dtb.rdAccesses             50855158                       # TLB accesses on read requests (Count)
system.o3Cpu7.mmu.dtb.wrAccesses              5650192                       # TLB accesses on write requests (Count)
system.o3Cpu7.mmu.dtb.rdMisses                   1222                       # TLB misses on read requests (Count)
system.o3Cpu7.mmu.dtb.wrMisses                    624                       # TLB misses on write requests (Count)
system.o3Cpu7.mmu.dtb.walker.power_state.pwrStateResidencyTicks::UNDEFINED  36511960400                       # Cumulative time (in ticks) in various power states (Tick)
system.o3Cpu7.mmu.itb.rdAccesses                    0                       # TLB accesses on read requests (Count)
system.o3Cpu7.mmu.itb.wrAccesses              9481431                       # TLB accesses on write requests (Count)
system.o3Cpu7.mmu.itb.rdMisses                      0                       # TLB misses on read requests (Count)
system.o3Cpu7.mmu.itb.wrMisses                     69                       # TLB misses on write requests (Count)
system.o3Cpu7.mmu.itb.walker.power_state.pwrStateResidencyTicks::UNDEFINED  36511960400                       # Cumulative time (in ticks) in various power states (Tick)
system.o3Cpu7.power_state.numTransitions            8                       # Number of power state transitions (Count)
system.o3Cpu7.power_state.ticksClkGated::samples            4                       # Distribution of time spent in the clock gated state (Tick)
system.o3Cpu7.power_state.ticksClkGated::mean    904867000                       # Distribution of time spent in the clock gated state (Tick)
system.o3Cpu7.power_state.ticksClkGated::stdev 158122173.766996                       # Distribution of time spent in the clock gated state (Tick)
system.o3Cpu7.power_state.ticksClkGated::1000-5e+10            4    100.00%    100.00% # Distribution of time spent in the clock gated state (Tick)
system.o3Cpu7.power_state.ticksClkGated::min_value    669733400                       # Distribution of time spent in the clock gated state (Tick)
system.o3Cpu7.power_state.ticksClkGated::max_value    998840600                       # Distribution of time spent in the clock gated state (Tick)
system.o3Cpu7.power_state.ticksClkGated::total            4                       # Distribution of time spent in the clock gated state (Tick)
system.o3Cpu7.power_state.pwrStateResidencyTicks::ON  14853626400                       # Cumulative time (in ticks) in various power states (Tick)
system.o3Cpu7.power_state.pwrStateResidencyTicks::CLK_GATED   3619468000                       # Cumulative time (in ticks) in various power states (Tick)
system.o3Cpu7.power_state.pwrStateResidencyTicks::OFF  18038866000                       # Cumulative time (in ticks) in various power states (Tick)
system.o3Cpu7.rename.squashCycles                4810                       # Number of cycles rename is squashing (Cycle)
system.o3Cpu7.rename.idleCycles               9791260                       # Number of cycles rename is idle (Cycle)
system.o3Cpu7.rename.blockCycles             38868660                       # Number of cycles rename is blocking (Cycle)
system.o3Cpu7.rename.serializeStallCycles       322000                       # count of cycles rename stalled for serializing inst (Cycle)
system.o3Cpu7.rename.runCycles               31666153                       # Number of cycles rename is running (Cycle)
system.o3Cpu7.rename.unblockCycles           78640127                       # Number of cycles rename is unblocking (Cycle)
system.o3Cpu7.rename.renamedInsts           223801572                       # Number of instructions processed by rename (Count)
system.o3Cpu7.rename.ROBFullEvents               6837                       # Number of times rename has blocked due to ROB full (Count)
system.o3Cpu7.rename.IQFullEvents               17318                       # Number of times rename has blocked due to IQ full (Count)
system.o3Cpu7.rename.LQFullEvents               57103                       # Number of times rename has blocked due to LQ full (Count)
system.o3Cpu7.rename.SQFullEvents            78530135                       # Number of times rename has blocked due to SQ full (Count)
system.o3Cpu7.rename.renamedOperands        244507888                       # Number of destination operands rename has renamed (Count)
system.o3Cpu7.rename.lookups                581561503                       # Number of register rename lookups that rename has made (Count)
system.o3Cpu7.rename.intLookups              86957668                       # Number of integer rename lookups (Count)
system.o3Cpu7.rename.fpLookups              317527935                       # Number of floating rename lookups (Count)
system.o3Cpu7.rename.committedMaps          244377947                       # Number of HB maps that are committed (Count)
system.o3Cpu7.rename.undoneMaps                129850                       # Number of HB maps that are undone due to squashing (Count)
system.o3Cpu7.rename.serializing                 1885                       # count of serializing insts renamed (Count)
system.o3Cpu7.rename.tempSerializing             1975                       # count of temporary serializing insts renamed (Count)
system.o3Cpu7.rename.skidInsts                1631326                       # count of insts added to the skid buffer (Count)
system.o3Cpu7.rob.reads                     368081638                       # The number of ROB reads (Count)
system.o3Cpu7.rob.writes                    447587028                       # The number of ROB writes (Count)
system.o3Cpu7.thread_0.numInsts             106922976                       # Number of Instructions committed (Count)
system.o3Cpu7.thread_0.numOps               223714509                       # Number of Ops committed (Count)
system.o3Cpu7.thread_0.numMemRefs                   0                       # Number of Memory References (Count)
system.pc.bad_addr.power_state.pwrStateResidencyTicks::UNDEFINED  36511960400                       # Cumulative time (in ticks) in various power states (Tick)
system.pc.com_1.power_state.pwrStateResidencyTicks::UNDEFINED  36511960400                       # Cumulative time (in ticks) in various power states (Tick)
system.pc.default_bus.power_state.pwrStateResidencyTicks::UNDEFINED  36511960400                       # Cumulative time (in ticks) in various power states (Tick)
system.pc.empty_isa.power_state.pwrStateResidencyTicks::UNDEFINED  36511960400                       # Cumulative time (in ticks) in various power states (Tick)
system.pc.fake_com_2.power_state.pwrStateResidencyTicks::UNDEFINED  36511960400                       # Cumulative time (in ticks) in various power states (Tick)
system.pc.fake_com_3.power_state.pwrStateResidencyTicks::UNDEFINED  36511960400                       # Cumulative time (in ticks) in various power states (Tick)
system.pc.fake_com_4.power_state.pwrStateResidencyTicks::UNDEFINED  36511960400                       # Cumulative time (in ticks) in various power states (Tick)
system.pc.fake_floppy.power_state.pwrStateResidencyTicks::UNDEFINED  36511960400                       # Cumulative time (in ticks) in various power states (Tick)
system.pc.pci_host.power_state.pwrStateResidencyTicks::UNDEFINED  36511960400                       # Cumulative time (in ticks) in various power states (Tick)
system.pc.south_bridge.cmos.power_state.pwrStateResidencyTicks::UNDEFINED  36511960400                       # Cumulative time (in ticks) in various power states (Tick)
system.pc.south_bridge.dma1.power_state.pwrStateResidencyTicks::UNDEFINED  36511960400                       # Cumulative time (in ticks) in various power states (Tick)
system.pc.south_bridge.ide.disks0.IdeDisk.dmaReadFullPages            0                       # Number of full page size DMA reads (not PRD). (Count)
system.pc.south_bridge.ide.disks0.IdeDisk.dmaReadBytes            0                       # Number of bytes transfered via DMA reads (not PRD). (Byte)
system.pc.south_bridge.ide.disks0.IdeDisk.dmaReadTxs            0                       # Number of DMA read transactions (not PRD). (Count)
system.pc.south_bridge.ide.disks0.IdeDisk.dmaWriteFullPages            0                       # Number of full page size DMA writes. (Count)
system.pc.south_bridge.ide.disks0.IdeDisk.dmaWriteBytes            0                       # Number of bytes transfered via DMA writes. (Byte)
system.pc.south_bridge.ide.disks0.IdeDisk.dmaWriteTxs            0                       # Number of DMA write transactions. (Count)
system.pc.south_bridge.ide.disks1.IdeDisk.dmaReadFullPages            0                       # Number of full page size DMA reads (not PRD). (Count)
system.pc.south_bridge.ide.disks1.IdeDisk.dmaReadBytes            0                       # Number of bytes transfered via DMA reads (not PRD). (Byte)
system.pc.south_bridge.ide.disks1.IdeDisk.dmaReadTxs            0                       # Number of DMA read transactions (not PRD). (Count)
system.pc.south_bridge.ide.disks1.IdeDisk.dmaWriteFullPages            0                       # Number of full page size DMA writes. (Count)
system.pc.south_bridge.ide.disks1.IdeDisk.dmaWriteBytes            0                       # Number of bytes transfered via DMA writes. (Byte)
system.pc.south_bridge.ide.disks1.IdeDisk.dmaWriteTxs            0                       # Number of DMA write transactions. (Count)
system.pc.south_bridge.ide.power_state.pwrStateResidencyTicks::UNDEFINED  36511960400                       # Cumulative time (in ticks) in various power states (Tick)
system.pc.south_bridge.io_apic.power_state.pwrStateResidencyTicks::UNDEFINED  36511960400                       # Cumulative time (in ticks) in various power states (Tick)
system.pc.south_bridge.keyboard.power_state.pwrStateResidencyTicks::UNDEFINED  36511960400                       # Cumulative time (in ticks) in various power states (Tick)
system.pc.south_bridge.pic1.power_state.pwrStateResidencyTicks::UNDEFINED  36511960400                       # Cumulative time (in ticks) in various power states (Tick)
system.pc.south_bridge.pic2.power_state.pwrStateResidencyTicks::UNDEFINED  36511960400                       # Cumulative time (in ticks) in various power states (Tick)
system.pc.south_bridge.pit.power_state.pwrStateResidencyTicks::UNDEFINED  36511960400                       # Cumulative time (in ticks) in various power states (Tick)
system.pc.south_bridge.speaker.power_state.pwrStateResidencyTicks::UNDEFINED  36511960400                       # Cumulative time (in ticks) in various power states (Tick)
system.workload.inst.arm                            0                       # number of arm instructions executed (Count)
system.workload.inst.quiesce                        0                       # number of quiesce instructions executed (Count)

---------- End Simulation Statistics   ----------
