
---------- Begin Simulation Statistics ----------
simSeconds                                   0.015889                       # Number of seconds simulated (Second)
simTicks                                  15889386550                       # Number of ticks simulated (Tick)
finalTick                                217532116216000                       # Number of ticks from beginning of simulation (restored from checkpoints and never reset) (Tick)
simFreq                                  1000000000000                       # The number of ticks per simulated second ((Tick/Second))
hostSeconds                                   9901.85                       # Real time elapsed on the host (Second)
hostTickRate                                  1604688                       # The number of ticks simulated per host second (ticks/s) ((Tick/Second))
hostMemory                                   19755512                       # Number of bytes of host memory used (Byte)
simInsts                                    230151568                       # Number of instructions simulated (Count)
simOps                                      367113562                       # Number of ops (including micro ops) simulated (Count)
hostInstRate                                    23243                       # Simulator instruction rate (inst/s) ((Count/Second))
hostOpRate                                      37075                       # Simulator op (including micro ops) rate (op/s) ((Count/Second))
system.caches.delayHistogram::bucket_size          256                       # delay histogram for all message (Unspecified)
system.caches.delayHistogram::max_bucket         2559                       # delay histogram for all message (Unspecified)
system.caches.delayHistogram::samples        13472704                       # delay histogram for all message (Unspecified)
system.caches.delayHistogram::mean           0.239929                       # delay histogram for all message (Unspecified)
system.caches.delayHistogram::stdev          1.613769                       # delay histogram for all message (Unspecified)
system.caches.delayHistogram             |    13472689    100.00%    100.00% |           6      0.00%    100.00% |           3      0.00%    100.00% |           3      0.00%    100.00% |           2      0.00%    100.00% |           1      0.00%    100.00% |           0      0.00%    100.00% |           0      0.00%    100.00% |           0      0.00%    100.00% |           0      0.00%    100.00% # delay histogram for all message (Unspecified)
system.caches.delayHistogram::total          13472704                       # delay histogram for all message (Unspecified)
system.caches.m_outstandReqHistSeqr::bucket_size            2                       (Unspecified)
system.caches.m_outstandReqHistSeqr::max_bucket           19                       (Unspecified)
system.caches.m_outstandReqHistSeqr::samples    215268208                       (Unspecified)
system.caches.m_outstandReqHistSeqr::mean     3.335600                       (Unspecified)
system.caches.m_outstandReqHistSeqr::gmean     2.363267                       (Unspecified)
system.caches.m_outstandReqHistSeqr::stdev     3.135724                       (Unspecified)
system.caches.m_outstandReqHistSeqr      |    78722212     36.57%     36.57% |    65556598     30.45%     67.02% |    33811147     15.71%     82.73% |    16992533      7.89%     90.62% |     8229972      3.82%     94.45% |     4215661      1.96%     96.40% |     2555156      1.19%     97.59% |     1986884      0.92%     98.51% |     3198045      1.49%    100.00% |           0      0.00%    100.00% (Unspecified)
system.caches.m_outstandReqHistSeqr::total    215268208                       (Unspecified)
system.caches.m_latencyHistSeqr::bucket_size          512                       (Unspecified)
system.caches.m_latencyHistSeqr::max_bucket         5119                       (Unspecified)
system.caches.m_latencyHistSeqr::samples    216780036                       (Unspecified)
system.caches.m_latencyHistSeqr::mean        4.527402                       (Unspecified)
system.caches.m_latencyHistSeqr::gmean       1.059646                       (Unspecified)
system.caches.m_latencyHistSeqr::stdev      45.666233                       (Unspecified)
system.caches.m_latencyHistSeqr          |   216413515     99.83%     99.83% |      334784      0.15%     99.99% |        6474      0.00%     99.99% |        7963      0.00%     99.99% |       14613      0.01%    100.00% |        2484      0.00%    100.00% |         171      0.00%    100.00% |          32      0.00%    100.00% |           0      0.00%    100.00% |           0      0.00%    100.00% (Unspecified)
system.caches.m_latencyHistSeqr::total      216780036                       (Unspecified)
system.caches.m_hitLatencyHistSeqr::bucket_size          256                       (Unspecified)
system.caches.m_hitLatencyHistSeqr::max_bucket         2559                       (Unspecified)
system.caches.m_hitLatencyHistSeqr::samples    214669721                       (Unspecified)
system.caches.m_hitLatencyHistSeqr::mean     1.008051                       (Unspecified)
system.caches.m_hitLatencyHistSeqr::gmean     1.005491                       (Unspecified)
system.caches.m_hitLatencyHistSeqr::stdev     0.322560                       (Unspecified)
system.caches.m_hitLatencyHistSeqr       |   214669661    100.00%    100.00% |          49      0.00%    100.00% |           8      0.00%    100.00% |           1      0.00%    100.00% |           0      0.00%    100.00% |           0      0.00%    100.00% |           0      0.00%    100.00% |           0      0.00%    100.00% |           2      0.00%    100.00% |           0      0.00%    100.00% (Unspecified)
system.caches.m_hitLatencyHistSeqr::total    214669721                       (Unspecified)
system.caches.m_missLatencyHistSeqr::bucket_size          512                       (Unspecified)
system.caches.m_missLatencyHistSeqr::max_bucket         5119                       (Unspecified)
system.caches.m_missLatencyHistSeqr::samples      2110315                       (Unspecified)
system.caches.m_missLatencyHistSeqr::mean   362.529913                       (Unspecified)
system.caches.m_missLatencyHistSeqr::gmean   220.149651                       (Unspecified)
system.caches.m_missLatencyHistSeqr::stdev   291.178445                       (Unspecified)
system.caches.m_missLatencyHistSeqr      |     1743805     82.63%     82.63% |      334775     15.86%     98.50% |        6474      0.31%     98.80% |        7963      0.38%     99.18% |       14611      0.69%     99.87% |        2484      0.12%     99.99% |         171      0.01%    100.00% |          32      0.00%    100.00% |           0      0.00%    100.00% |           0      0.00%    100.00% (Unspecified)
system.caches.m_missLatencyHistSeqr::total      2110315                       (Unspecified)
system.caches.delayVCHist.vnet_0::bucket_size          256                       # delay histogram for vnet_0 (Unspecified)
system.caches.delayVCHist.vnet_0::max_bucket         2559                       # delay histogram for vnet_0 (Unspecified)
system.caches.delayVCHist.vnet_0::samples      5692577                       # delay histogram for vnet_0 (Unspecified)
system.caches.delayVCHist.vnet_0::mean       0.450605                       # delay histogram for vnet_0 (Unspecified)
system.caches.delayVCHist.vnet_0::stdev      2.313832                       # delay histogram for vnet_0 (Unspecified)
system.caches.delayVCHist.vnet_0         |     5692562    100.00%    100.00% |           6      0.00%    100.00% |           3      0.00%    100.00% |           3      0.00%    100.00% |           2      0.00%    100.00% |           1      0.00%    100.00% |           0      0.00%    100.00% |           0      0.00%    100.00% |           0      0.00%    100.00% |           0      0.00%    100.00% # delay histogram for vnet_0 (Unspecified)
system.caches.delayVCHist.vnet_0::total       5692577                       # delay histogram for vnet_0 (Unspecified)
system.caches.delayVCHist.vnet_1::bucket_size            8                       # delay histogram for vnet_1 (Unspecified)
system.caches.delayVCHist.vnet_1::max_bucket           79                       # delay histogram for vnet_1 (Unspecified)
system.caches.delayVCHist.vnet_1::samples      7447658                       # delay histogram for vnet_1 (Unspecified)
system.caches.delayVCHist.vnet_1::mean       0.089594                       # delay histogram for vnet_1 (Unspecified)
system.caches.delayVCHist.vnet_1::stdev      0.748176                       # delay histogram for vnet_1 (Unspecified)
system.caches.delayVCHist.vnet_1         |     7423255     99.67%     99.67% |       22229      0.30%     99.97% |        1753      0.02%     99.99% |         316      0.00%    100.00% |          82      0.00%    100.00% |          22      0.00%    100.00% |           1      0.00%    100.00% |           0      0.00%    100.00% |           0      0.00%    100.00% |           0      0.00%    100.00% # delay histogram for vnet_1 (Unspecified)
system.caches.delayVCHist.vnet_1::total       7447658                       # delay histogram for vnet_1 (Unspecified)
system.caches.delayVCHist.vnet_2::bucket_size            1                       # delay histogram for vnet_2 (Unspecified)
system.caches.delayVCHist.vnet_2::max_bucket            9                       # delay histogram for vnet_2 (Unspecified)
system.caches.delayVCHist.vnet_2::samples       332469                       # delay histogram for vnet_2 (Unspecified)
system.caches.delayVCHist.vnet_2::mean       0.000373                       # delay histogram for vnet_2 (Unspecified)
system.caches.delayVCHist.vnet_2::stdev      0.027746                       # delay histogram for vnet_2 (Unspecified)
system.caches.delayVCHist.vnet_2         |      332408     99.98%     99.98% |           0      0.00%     99.98% |          60      0.02%    100.00% |           0      0.00%    100.00% |           1      0.00%    100.00% |           0      0.00%    100.00% |           0      0.00%    100.00% |           0      0.00%    100.00% |           0      0.00%    100.00% |           0      0.00%    100.00% # delay histogram for vnet_2 (Unspecified)
system.caches.delayVCHist.vnet_2::total        332469                       # delay histogram for vnet_2 (Unspecified)
system.caches.L1Cache_Controller.Load    |    12974165     12.50%     12.50% |    13102050     12.62%     25.12% |    13009296     12.53%     37.65% |    13039500     12.56%     50.21% |    12845243     12.37%     62.59% |    12803760     12.33%     74.92% |    12911713     12.44%     87.36% |    13122007     12.64%    100.00% (Unspecified)
system.caches.L1Cache_Controller.Load::total    103807734                       (Unspecified)
system.caches.L1Cache_Controller.Ifetch  |    13916494     12.60%     12.60% |    13814877     12.51%     25.11% |    13761609     12.46%     37.57% |    13772158     12.47%     50.04% |    13790280     12.49%     62.53% |    13865321     12.56%     75.09% |    13781429     12.48%     87.57% |    13730882     12.43%    100.00% (Unspecified)
system.caches.L1Cache_Controller.Ifetch::total    110433050                       (Unspecified)
system.caches.L1Cache_Controller.Store   |      311934     12.28%     12.28% |      308085     12.13%     24.42% |      308683     12.16%     36.57% |      307939     12.13%     48.70% |      328529     12.94%     61.64% |      355967     14.02%     75.66% |      308618     12.15%     87.81% |      309500     12.19%    100.00% (Unspecified)
system.caches.L1Cache_Controller.Store::total      2539255                       (Unspecified)
system.caches.L1Cache_Controller.Inv     |       36831     13.48%     13.48% |       36221     13.25%     26.73% |       31596     11.56%     38.30% |       33242     12.16%     50.46% |       36133     13.22%     63.68% |       35649     13.05%     76.73% |       33731     12.34%     89.07% |       29865     10.93%    100.00% (Unspecified)
system.caches.L1Cache_Controller.Inv::total       273268                       (Unspecified)
system.caches.L1Cache_Controller.L1_Replacement |      263145     13.20%     13.20% |      249547     12.51%     25.71% |      247850     12.43%     38.14% |      247403     12.41%     50.55% |      246677     12.37%     62.92% |      249208     12.50%     75.41% |      243781     12.23%     87.64% |      246504     12.36%    100.00% (Unspecified)
system.caches.L1Cache_Controller.L1_Replacement::total      1994115                       (Unspecified)
system.caches.L1Cache_Controller.Fwd_GETX |         123     12.14%     12.14% |         128     12.64%     24.78% |         131     12.93%     37.71% |         131     12.93%     50.64% |         128     12.64%     63.28% |         119     11.75%     75.02% |         128     12.64%     87.66% |         125     12.34%    100.00% (Unspecified)
system.caches.L1Cache_Controller.Fwd_GETX::total         1013                       (Unspecified)
system.caches.L1Cache_Controller.Fwd_GETS |        8208     14.11%     14.11% |        7386     12.69%     26.80% |        6758     11.61%     38.41% |        7175     12.33%     50.74% |        7402     12.72%     63.46% |        7079     12.17%     75.63% |        7193     12.36%     87.99% |        6987     12.01%    100.00% (Unspecified)
system.caches.L1Cache_Controller.Fwd_GETS::total        58188                       (Unspecified)
system.caches.L1Cache_Controller.Data    |          32     76.19%     76.19% |           0      0.00%     76.19% |           0      0.00%     76.19% |           1      2.38%     78.57% |           1      2.38%     80.95% |           6     14.29%     95.24% |           1      2.38%     97.62% |           1      2.38%    100.00% (Unspecified)
system.caches.L1Cache_Controller.Data::total           42                       (Unspecified)
system.caches.L1Cache_Controller.Data_Exclusive |      231298     12.76%     12.76% |      227843     12.57%     25.33% |      226889     12.52%     37.84% |      226825     12.51%     50.35% |      225631     12.45%     62.80% |      226393     12.49%     75.29% |      222917     12.30%     87.58% |      225092     12.42%    100.00% (Unspecified)
system.caches.L1Cache_Controller.Data_Exclusive::total      1812888                       (Unspecified)
system.caches.L1Cache_Controller.DataS_fromL1 |        7198     12.37%     12.37% |        7268     12.49%     24.86% |        7009     12.05%     36.91% |        6845     11.76%     48.67% |        7393     12.71%     61.38% |        7812     13.43%     74.80% |        7406     12.73%     87.53% |        7257     12.47%    100.00% (Unspecified)
system.caches.L1Cache_Controller.DataS_fromL1::total        58188                       (Unspecified)
system.caches.L1Cache_Controller.Data_all_Acks |       27406     13.23%     13.23% |       25916     12.51%     25.74% |       25476     12.30%     38.04% |       25449     12.29%     50.33% |       25287     12.21%     62.54% |       27004     13.04%     75.58% |       24827     11.99%     87.57% |       25754     12.43%    100.00% (Unspecified)
system.caches.L1Cache_Controller.Data_all_Acks::total       207119                       (Unspecified)
system.caches.L1Cache_Controller.Ack     |       16790     16.07%     16.07% |       12502     11.97%     28.04% |       12607     12.07%     40.11% |       11586     11.09%     51.20% |       11635     11.14%     62.34% |       11129     10.65%     72.99% |       14660     14.03%     87.03% |       13554     12.97%    100.00% (Unspecified)
system.caches.L1Cache_Controller.Ack::total       104463                       (Unspecified)
system.caches.L1Cache_Controller.Ack_all |        4541     14.14%     14.14% |        3960     12.33%     26.47% |        3999     12.45%     38.92% |        3711     11.55%     50.47% |        3818     11.89%     62.36% |        3635     11.32%     73.67% |        4197     13.07%     86.74% |        4259     13.26%    100.00% (Unspecified)
system.caches.L1Cache_Controller.Ack_all::total        32120                       (Unspecified)
system.caches.L1Cache_Controller.WB_Ack  |      221905     13.25%     13.25% |      211780     12.64%     25.89% |      208469     12.45%     38.34% |      206688     12.34%     50.68% |      206886     12.35%     63.03% |      206884     12.35%     75.38% |      203271     12.14%     87.52% |      209097     12.48%    100.00% (Unspecified)
system.caches.L1Cache_Controller.WB_Ack::total      1674980                       (Unspecified)
system.caches.L1Cache_Controller.NP.Load |      262358     12.83%     12.83% |      257213     12.57%     25.40% |      255548     12.49%     37.89% |      255059     12.47%     50.36% |      254137     12.42%     62.79% |      255695     12.50%     75.29% |      251452     12.29%     87.58% |      253977     12.42%    100.00% (Unspecified)
system.caches.L1Cache_Controller.NP.Load::total      2045439                       (Unspecified)
system.caches.L1Cache_Controller.NP.Ifetch |         743      9.05%      9.05% |         855     10.42%     19.47% |         865     10.54%     30.00% |         859     10.46%     40.47% |        1159     14.12%     54.59% |        1787     21.77%     76.36% |         899     10.95%     87.31% |        1042     12.69%    100.00% (Unspecified)
system.caches.L1Cache_Controller.NP.Ifetch::total         8209                       (Unspecified)
system.caches.L1Cache_Controller.NP.Store |         410     14.66%     14.66% |         265      9.48%     24.14% |         226      8.08%     32.22% |         268      9.59%     41.81% |         296     10.59%     52.40% |         802     28.68%     81.08% |         246      8.80%     89.88% |         283     10.12%    100.00% (Unspecified)
system.caches.L1Cache_Controller.NP.Store::total         2796                       (Unspecified)
system.caches.L1Cache_Controller.NP.Inv  |       22947     14.01%     14.01% |       20695     12.63%     26.64% |       19938     12.17%     38.81% |       19868     12.13%     50.94% |       20093     12.26%     63.20% |       20366     12.43%     75.63% |       19361     11.82%     87.45% |       20557     12.55%    100.00% (Unspecified)
system.caches.L1Cache_Controller.NP.Inv::total       163825                       (Unspecified)
system.caches.L1Cache_Controller.I.Load  |        1147      8.87%      8.87% |        1648     12.74%     21.61% |        1699     13.14%     34.75% |        1900     14.69%     49.44% |        1667     12.89%     62.33% |        1754     13.56%     75.90% |        1511     11.68%     87.58% |        1606     12.42%    100.00% (Unspecified)
system.caches.L1Cache_Controller.I.Load::total        12932                       (Unspecified)
system.caches.L1Cache_Controller.I.Ifetch |        1102     14.63%     14.63% |         887     11.78%     26.41% |         871     11.57%     37.98% |         880     11.69%     49.66% |         894     11.87%     61.53% |         993     13.19%     74.72% |         876     11.63%     86.35% |        1028     13.65%    100.00% (Unspecified)
system.caches.L1Cache_Controller.I.Ifetch::total         7531                       (Unspecified)
system.caches.L1Cache_Controller.I.Store |         175     13.15%     13.15% |         159     11.95%     25.09% |         165     12.40%     37.49% |         154     11.57%     49.06% |         159     11.95%     61.01% |         184     13.82%     74.83% |         167     12.55%     87.38% |         168     12.62%    100.00% (Unspecified)
system.caches.L1Cache_Controller.I.Store::total         1331                       (Unspecified)
system.caches.L1Cache_Controller.I.L1_Replacement |       10239     14.04%     14.04% |        6207      8.51%     22.56% |        8583     11.77%     34.33% |       10135     13.90%     48.23% |        9513     13.05%     61.28% |       11252     15.43%     76.71% |       10739     14.73%     91.44% |        6241      8.56%    100.00% (Unspecified)
system.caches.L1Cache_Controller.I.L1_Replacement::total        72909                       (Unspecified)
system.caches.L1Cache_Controller.S.Load  |     7105794     12.47%     12.47% |     7278710     12.78%     25.25% |     7204418     12.65%     37.89% |     7220792     12.67%     50.57% |     7032751     12.34%     62.91% |     6930803     12.16%     75.08% |     7067345     12.40%     87.48% |     7133091     12.52%    100.00% (Unspecified)
system.caches.L1Cache_Controller.S.Load::total     56973704                       (Unspecified)
system.caches.L1Cache_Controller.S.Ifetch |    13914649     12.60%     12.60% |    13813135     12.51%     25.11% |    13759873     12.46%     37.57% |    13770419     12.47%     50.04% |    13788227     12.49%     62.53% |    13862540     12.55%     75.09% |    13779654     12.48%     87.57% |    13728812     12.43%    100.00% (Unspecified)
system.caches.L1Cache_Controller.S.Ifetch::total    110417309                       (Unspecified)
system.caches.L1Cache_Controller.S.Store |        4509     14.06%     14.06% |        3960     12.34%     26.40% |        3999     12.47%     38.87% |        3710     11.57%     50.43% |        3817     11.90%     62.33% |        3629     11.31%     73.65% |        4196     13.08%     86.73% |        4258     13.27%    100.00% (Unspecified)
system.caches.L1Cache_Controller.S.Store::total        32078                       (Unspecified)
system.caches.L1Cache_Controller.S.Inv   |        6515     11.97%     11.97% |        6274     11.53%     23.51% |        6297     11.57%     35.08% |        7121     13.09%     48.17% |        7281     13.38%     61.55% |        7925     14.57%     76.12% |        6742     12.39%     88.51% |        6251     11.49%    100.00% (Unspecified)
system.caches.L1Cache_Controller.S.Inv::total        54406                       (Unspecified)
system.caches.L1Cache_Controller.S.L1_Replacement |       31001     12.59%     12.59% |       31560     12.82%     25.41% |       30797     12.51%     37.92% |       30580     12.42%     50.34% |       30278     12.30%     62.63% |       31072     12.62%     75.25% |       29770     12.09%     87.34% |       31165     12.66%    100.00% (Unspecified)
system.caches.L1Cache_Controller.S.L1_Replacement::total       246223                       (Unspecified)
system.caches.L1Cache_Controller.E.Load  |     2201818     13.66%     13.66% |     1989608     12.34%     26.01% |     1966489     12.20%     38.21% |     2031276     12.60%     50.81% |     1816066     11.27%     62.08% |     2021240     12.54%     74.62% |     1974765     12.25%     86.87% |     2115884     13.13%    100.00% (Unspecified)
system.caches.L1Cache_Controller.E.Load::total     16117146                       (Unspecified)
system.caches.L1Cache_Controller.E.Store |       28706     12.33%     12.33% |       29126     12.51%     24.84% |       29059     12.48%     37.32% |       29380     12.62%     49.93% |       29288     12.58%     62.51% |       29551     12.69%     75.20% |       28894     12.41%     87.61% |       28847     12.39%    100.00% (Unspecified)
system.caches.L1Cache_Controller.E.Store::total       232851                       (Unspecified)
system.caches.L1Cache_Controller.E.Inv   |        5894     13.02%     13.02% |        8767     19.36%     32.38% |        4395      9.71%     42.08% |        3870      8.55%     50.63% |        6999     15.46%     66.09% |        6162     13.61%     79.70% |        6671     14.73%     94.43% |        2522      5.57%    100.00% (Unspecified)
system.caches.L1Cache_Controller.E.Inv::total        45280                       (Unspecified)
system.caches.L1Cache_Controller.E.L1_Replacement |      176816     12.51%     12.51% |      180177     12.75%     25.25% |      177362     12.55%     37.80% |      177090     12.53%     50.33% |      176546     12.49%     62.82% |      175256     12.40%     75.22% |      172604     12.21%     87.43% |      177742     12.57%    100.00% (Unspecified)
system.caches.L1Cache_Controller.E.L1_Replacement::total      1413593                       (Unspecified)
system.caches.L1Cache_Controller.E.Fwd_GETX |           3      9.38%      9.38% |           5     15.62%     25.00% |           6     18.75%     43.75% |           5     15.62%     59.38% |           4     12.50%     71.88% |           1      3.12%     75.00% |           5     15.62%     90.62% |           3      9.38%    100.00% (Unspecified)
system.caches.L1Cache_Controller.E.Fwd_GETX::total           32                       (Unspecified)
system.caches.L1Cache_Controller.E.Fwd_GETS |        5548     12.14%     12.14% |        6078     13.30%     25.44% |        5499     12.03%     37.48% |        5760     12.61%     50.08% |        6067     13.28%     63.36% |        5859     12.82%     76.18% |        5432     11.89%     88.07% |        5451     11.93%    100.00% (Unspecified)
system.caches.L1Cache_Controller.E.Fwd_GETS::total        45694                       (Unspecified)
system.caches.L1Cache_Controller.M.Load  |     3403048     11.87%     11.87% |     3574871     12.47%     24.35% |     3581142     12.50%     36.84% |     3530473     12.32%     49.16% |     3740622     13.05%     62.22% |     3594268     12.54%     74.76% |     3616640     12.62%     87.38% |     3617449     12.62%    100.00% (Unspecified)
system.caches.L1Cache_Controller.M.Load::total     28658513                       (Unspecified)
system.caches.L1Cache_Controller.M.Store |      278134     12.25%     12.25% |      274575     12.09%     24.35% |      275233     12.12%     36.47% |      274427     12.09%     48.56% |      294969     12.99%     61.55% |      321801     14.18%     75.73% |      275115     12.12%     87.84% |      275944     12.16%    100.00% (Unspecified)
system.caches.L1Cache_Controller.M.Store::total      2270198                       (Unspecified)
system.caches.L1Cache_Controller.M.Inv   |        1475     15.14%     15.14% |         481      4.94%     20.08% |         963      9.89%     29.97% |        2381     24.44%     54.41% |        1758     18.05%     72.46% |        1196     12.28%     84.73% |         955      9.80%     94.54% |         532      5.46%    100.00% (Unspecified)
system.caches.L1Cache_Controller.M.Inv::total         9741                       (Unspecified)
system.caches.L1Cache_Controller.M.L1_Replacement |       45089     17.25%     17.25% |       31603     12.09%     29.34% |       31107     11.90%     41.24% |       29598     11.32%     52.56% |       30340     11.61%     64.17% |       31628     12.10%     76.27% |       30667     11.73%     88.00% |       31355     12.00%    100.00% (Unspecified)
system.caches.L1Cache_Controller.M.L1_Replacement::total       261387                       (Unspecified)
system.caches.L1Cache_Controller.M.Fwd_GETX |         120     12.23%     12.23% |         123     12.54%     24.77% |         125     12.74%     37.51% |         126     12.84%     50.36% |         124     12.64%     63.00% |         118     12.03%     75.03% |         123     12.54%     87.56% |         122     12.44%    100.00% (Unspecified)
system.caches.L1Cache_Controller.M.Fwd_GETX::total          981                       (Unspecified)
system.caches.L1Cache_Controller.M.Fwd_GETS |        2660     21.29%     21.29% |        1308     10.47%     31.76% |        1259     10.08%     41.84% |        1415     11.33%     53.16% |        1335     10.69%     63.85% |        1220      9.76%     73.61% |        1761     14.09%     87.71% |        1536     12.29%    100.00% (Unspecified)
system.caches.L1Cache_Controller.M.Fwd_GETS::total        12494                       (Unspecified)
system.caches.L1Cache_Controller.IS.Inv  |           0      0.00%      0.00% |           4     25.00%     25.00% |           3     18.75%     43.75% |           2     12.50%     56.25% |           2     12.50%     68.75% |           0      0.00%     68.75% |           2     12.50%     81.25% |           3     18.75%    100.00% (Unspecified)
system.caches.L1Cache_Controller.IS.Inv::total           16                       (Unspecified)
system.caches.L1Cache_Controller.IS.L1_Replacement |           0      0.00%      0.00% |           0      0.00%      0.00% |           0      0.00%      0.00% |           0      0.00%      0.00% |           0      0.00%      0.00% |           0      0.00%      0.00% |           1     50.00%     50.00% |           1     50.00%    100.00% (Unspecified)
system.caches.L1Cache_Controller.IS.L1_Replacement::total            2                       (Unspecified)
system.caches.L1Cache_Controller.IS.Data_Exclusive |      231298     12.76%     12.76% |      227843     12.57%     25.33% |      226889     12.52%     37.84% |      226825     12.51%     50.35% |      225631     12.45%     62.80% |      226393     12.49%     75.29% |      222917     12.30%     87.58% |      225092     12.42%    100.00% (Unspecified)
system.caches.L1Cache_Controller.IS.Data_Exclusive::total      1812888                       (Unspecified)
system.caches.L1Cache_Controller.IS.DataS_fromL1 |        7198     12.37%     12.37% |        7268     12.49%     24.86% |        7009     12.05%     36.91% |        6845     11.76%     48.67% |        7393     12.71%     61.38% |        7812     13.43%     74.80% |        7406     12.73%     87.53% |        7257     12.47%    100.00% (Unspecified)
system.caches.L1Cache_Controller.IS.DataS_fromL1::total        58188                       (Unspecified)
system.caches.L1Cache_Controller.IS.Data_all_Acks |       26853     13.23%     13.23% |       25488     12.55%     25.78% |       25082     12.35%     38.14% |       25026     12.33%     50.46% |       24831     12.23%     62.69% |       26024     12.82%     75.51% |       24413     12.03%     87.54% |       25301     12.46%    100.00% (Unspecified)
system.caches.L1Cache_Controller.IS.Data_all_Acks::total       203018                       (Unspecified)
system.caches.L1Cache_Controller.IM.L1_Replacement |           0      0.00%      0.00% |           0      0.00%      0.00% |           1    100.00%    100.00% |           0      0.00%    100.00% |           0      0.00%    100.00% |           0      0.00%    100.00% |           0      0.00%    100.00% |           0      0.00%    100.00% (Unspecified)
system.caches.L1Cache_Controller.IM.L1_Replacement::total            1                       (Unspecified)
system.caches.L1Cache_Controller.IM.Data |          32     76.19%     76.19% |           0      0.00%     76.19% |           0      0.00%     76.19% |           1      2.38%     78.57% |           1      2.38%     80.95% |           6     14.29%     95.24% |           1      2.38%     97.62% |           1      2.38%    100.00% (Unspecified)
system.caches.L1Cache_Controller.IM.Data::total           42                       (Unspecified)
system.caches.L1Cache_Controller.IM.Data_all_Acks |         553     13.54%     13.54% |         424     10.38%     23.92% |         391      9.57%     33.49% |         421     10.31%     43.79% |         454     11.11%     54.91% |         980     23.99%     78.90% |         412     10.09%     88.98% |         450     11.02%    100.00% (Unspecified)
system.caches.L1Cache_Controller.IM.Data_all_Acks::total         4085                       (Unspecified)
system.caches.L1Cache_Controller.SM.Ack  |       16790     16.07%     16.07% |       12502     11.97%     28.04% |       12607     12.07%     40.11% |       11586     11.09%     51.20% |       11635     11.14%     62.34% |       11129     10.65%     72.99% |       14660     14.03%     87.03% |       13554     12.97%    100.00% (Unspecified)
system.caches.L1Cache_Controller.SM.Ack::total       104463                       (Unspecified)
system.caches.L1Cache_Controller.SM.Ack_all |        4541     14.14%     14.14% |        3960     12.33%     26.47% |        3999     12.45%     38.92% |        3711     11.55%     50.47% |        3818     11.89%     62.36% |        3635     11.32%     73.67% |        4197     13.07%     86.74% |        4259     13.26%    100.00% (Unspecified)
system.caches.L1Cache_Controller.SM.Ack_all::total        32120                       (Unspecified)
system.caches.L1Cache_Controller.IS_I.Data_all_Acks |           0      0.00%      0.00% |           4     25.00%     25.00% |           3     18.75%     43.75% |           2     12.50%     56.25% |           2     12.50%     68.75% |           0      0.00%     68.75% |           2     12.50%     81.25% |           3     18.75%    100.00% (Unspecified)
system.caches.L1Cache_Controller.IS_I.Data_all_Acks::total           16                       (Unspecified)
system.caches.L1Cache_Controller.M_I.Ifetch |           0      0.00%      0.00% |           0      0.00%      0.00% |           0      0.00%      0.00% |           0      0.00%      0.00% |           0      0.00%      0.00% |           1    100.00%    100.00% |           0      0.00%    100.00% |           0      0.00%    100.00% (Unspecified)
system.caches.L1Cache_Controller.M_I.Ifetch::total            1                       (Unspecified)
system.caches.L1Cache_Controller.M_I.Store |           0      0.00%      0.00% |           0      0.00%      0.00% |           1    100.00%    100.00% |           0      0.00%    100.00% |           0      0.00%    100.00% |           0      0.00%    100.00% |           0      0.00%    100.00% |           0      0.00%    100.00% (Unspecified)
system.caches.L1Cache_Controller.M_I.Store::total            1                       (Unspecified)
system.caches.L1Cache_Controller.M_I.WB_Ack |      221905     13.25%     13.25% |      211780     12.64%     25.89% |      208469     12.45%     38.34% |      206688     12.34%     50.68% |      206886     12.35%     63.03% |      206884     12.35%     75.38% |      203271     12.14%     87.52% |      209097     12.48%    100.00% (Unspecified)
system.caches.L1Cache_Controller.M_I.WB_Ack::total      1674980                       (Unspecified)
system.caches.Directory_Controller.Fetch |        2546      0.15%      0.15% |     1728444     99.85%    100.00% (Unspecified)
system.caches.Directory_Controller.Fetch::total      1730990                       (Unspecified)
system.caches.Directory_Controller.Data  |          41      0.01%      0.01% |      332474     99.99%    100.00% (Unspecified)
system.caches.Directory_Controller.Data::total       332515                       (Unspecified)
system.caches.Directory_Controller.Memory_Data |        2546      0.15%      0.15% |     1728443     99.85%    100.00% (Unspecified)
system.caches.Directory_Controller.Memory_Data::total      1730989                       (Unspecified)
system.caches.Directory_Controller.Memory_Ack |          41      0.01%      0.01% |      332474     99.99%    100.00% (Unspecified)
system.caches.Directory_Controller.Memory_Ack::total       332515                       (Unspecified)
system.caches.Directory_Controller.CleanReplacement |        2345      0.19%      0.19% |     1265058     99.81%    100.00% (Unspecified)
system.caches.Directory_Controller.CleanReplacement::total      1267403                       (Unspecified)
system.caches.Directory_Controller.I.Fetch |        2546      0.15%      0.15% |     1728444     99.85%    100.00% (Unspecified)
system.caches.Directory_Controller.I.Fetch::total      1730990                       (Unspecified)
system.caches.Directory_Controller.M.Data |          41      0.01%      0.01% |      332474     99.99%    100.00% (Unspecified)
system.caches.Directory_Controller.M.Data::total       332515                       (Unspecified)
system.caches.Directory_Controller.M.CleanReplacement |        2345      0.19%      0.19% |     1265058     99.81%    100.00% (Unspecified)
system.caches.Directory_Controller.M.CleanReplacement::total      1267403                       (Unspecified)
system.caches.Directory_Controller.IM.Memory_Data |        2546      0.15%      0.15% |     1728443     99.85%    100.00% (Unspecified)
system.caches.Directory_Controller.IM.Memory_Data::total      1730989                       (Unspecified)
system.caches.Directory_Controller.MI.Memory_Ack |          41      0.01%      0.01% |      332474     99.99%    100.00% (Unspecified)
system.caches.Directory_Controller.MI.Memory_Ack::total       332515                       (Unspecified)
system.caches.L2Cache_Controller.L1_GET_INSTR |        2151     13.64%     13.64% |        2433     15.42%     29.06% |        1827     11.58%     40.64% |        1614     10.23%     50.87% |        1885     11.95%     62.82% |        1835     11.63%     74.46% |        1925     12.20%     86.66% |        2104     13.34%    100.00% (Unspecified)
system.caches.L2Cache_Controller.L1_GET_INSTR::total        15774                       (Unspecified)
system.caches.L2Cache_Controller.L1_GETS |      258482     12.55%     12.55% |      257177     12.49%     25.05% |      257378     12.50%     37.55% |      256413     12.45%     50.00% |      256655     12.47%     62.47% |      256615     12.46%     74.93% |      256952     12.48%     87.41% |      259187     12.59%    100.00% (Unspecified)
system.caches.L2Cache_Controller.L1_GETS::total      2058859                       (Unspecified)
system.caches.L2Cache_Controller.L1_GETX |         521     12.16%     12.16% |        1372     32.02%     44.18% |         148      3.45%     47.63% |         322      7.51%     55.15% |         367      8.56%     63.71% |         607     14.17%     77.88% |         375      8.75%     86.63% |         573     13.37%    100.00% (Unspecified)
system.caches.L2Cache_Controller.L1_GETX::total         4285                       (Unspecified)
system.caches.L2Cache_Controller.L1_UPGRADE |        3933     12.26%     12.26% |        4023     12.54%     24.80% |        3943     12.29%     37.08% |        3912     12.19%     49.28% |        4005     12.48%     61.76% |        3997     12.46%     74.21% |        4050     12.62%     86.84% |        4224     13.16%    100.00% (Unspecified)
system.caches.L2Cache_Controller.L1_UPGRADE::total        32087                       (Unspecified)
system.caches.L2Cache_Controller.L1_PUTX |      209643     12.52%     12.52% |      209472     12.51%     25.02% |      209181     12.49%     37.51% |      209335     12.50%     50.01% |      209271     12.49%     62.50% |      209186     12.49%     74.99% |      209353     12.50%     87.49% |      209539     12.51%    100.00% (Unspecified)
system.caches.L2Cache_Controller.L1_PUTX::total      1674980                       (Unspecified)
system.caches.L2Cache_Controller.L2_Replacement |       40550     12.53%     12.53% |       40369     12.47%     25.00% |       40414     12.49%     37.49% |       40390     12.48%     49.97% |       40364     12.47%     62.45% |       40480     12.51%     74.95% |       40541     12.53%     87.48% |       40513     12.52%    100.00% (Unspecified)
system.caches.L2Cache_Controller.L2_Replacement::total       323621                       (Unspecified)
system.caches.L2Cache_Controller.L2_Replacement_clean |      159673     12.51%     12.51% |      159568     12.50%     25.01% |      159588     12.50%     37.52% |      159571     12.50%     50.02% |      159490     12.50%     62.52% |      159448     12.49%     75.01% |      159329     12.48%     87.49% |      159630     12.51%    100.00% (Unspecified)
system.caches.L2Cache_Controller.L2_Replacement_clean::total      1276297                       (Unspecified)
system.caches.L2Cache_Controller.Mem_Data |      216607     12.51%     12.51% |      216321     12.50%     25.01% |      216386     12.50%     37.51% |      216345     12.50%     50.01% |      216238     12.49%     62.50% |      216312     12.50%     75.00% |      216254     12.49%     87.49% |      216526     12.51%    100.00% (Unspecified)
system.caches.L2Cache_Controller.Mem_Data::total      1730989                       (Unspecified)
system.caches.L2Cache_Controller.Mem_Ack |      200223     12.51%     12.51% |      199937     12.50%     25.01% |      200002     12.50%     37.51% |      199961     12.50%     50.01% |      199854     12.49%     62.50% |      199928     12.50%     75.00% |      199870     12.49%     87.49% |      200143     12.51%    100.00% (Unspecified)
system.caches.L2Cache_Controller.Mem_Ack::total      1599918                       (Unspecified)
system.caches.L2Cache_Controller.WB_Data |        2792     12.56%     12.56% |        2795     12.57%     25.13% |        2644     11.89%     37.02% |        2712     12.20%     49.22% |        2726     12.26%     61.48% |        2808     12.63%     74.10% |        2742     12.33%     86.44% |        3016     13.56%    100.00% (Unspecified)
system.caches.L2Cache_Controller.WB_Data::total        22235                       (Unspecified)
system.caches.L2Cache_Controller.WB_Data_clean |        5889     12.89%     12.89% |        5665     12.40%     25.29% |        5538     12.12%     37.41% |        5493     12.02%     49.43% |        5679     12.43%     61.85% |        5627     12.31%     74.17% |        5636     12.33%     86.50% |        6167     13.50%    100.00% (Unspecified)
system.caches.L2Cache_Controller.WB_Data_clean::total        45694                       (Unspecified)
system.caches.L2Cache_Controller.Ack     |       10283     13.11%     13.11% |        9871     12.58%     25.69% |        9537     12.15%     37.84% |        9360     11.93%     49.77% |        9852     12.56%     62.33% |        9722     12.39%     74.72% |        9661     12.31%     87.03% |       10178     12.97%    100.00% (Unspecified)
system.caches.L2Cache_Controller.Ack::total        78464                       (Unspecified)
system.caches.L2Cache_Controller.Ack_all |       10363     12.86%     12.86% |       10064     12.49%     25.36% |        9933     12.33%     37.69% |       10003     12.42%     50.10% |       10094     12.53%     62.63% |        9933     12.33%     74.96% |        9909     12.30%     87.27% |       10259     12.73%    100.00% (Unspecified)
system.caches.L2Cache_Controller.Ack_all::total        80558                       (Unspecified)
system.caches.L2Cache_Controller.Unblock |        7438     12.78%     12.78% |        7203     12.38%     25.16% |        7029     12.08%     37.24% |        7013     12.05%     49.29% |        7242     12.45%     61.74% |        7134     12.26%     74.00% |        7203     12.38%     86.38% |        7926     13.62%    100.00% (Unspecified)
system.caches.L2Cache_Controller.Unblock::total        58188                       (Unspecified)
system.caches.L2Cache_Controller.Exclusive_Unblock |      231472     12.52%     12.52% |      231994     12.55%     25.06% |      230578     12.47%     37.53% |      230742     12.48%     50.01% |      230838     12.48%     62.50% |      230807     12.48%     74.98% |      230910     12.49%     87.47% |      231752     12.53%    100.00% (Unspecified)
system.caches.L2Cache_Controller.Exclusive_Unblock::total      1849093                       (Unspecified)
system.caches.L2Cache_Controller.NP.L1_GET_INSTR |         395     12.98%     12.98% |         376     12.35%     25.33% |         391     12.84%     38.17% |         344     11.30%     49.47% |         387     12.71%     62.19% |         381     12.52%     74.70% |         381     12.52%     87.22% |         389     12.78%    100.00% (Unspecified)
system.caches.L2Cache_Controller.NP.L1_GET_INSTR::total         3044                       (Unspecified)
system.caches.L2Cache_Controller.NP.L1_GETS |      215983     12.51%     12.51% |      215739     12.50%     25.01% |      215879     12.51%     37.51% |      215837     12.50%     50.02% |      215663     12.49%     62.51% |      215679     12.49%     75.00% |      215669     12.49%     87.49% |      215880     12.51%    100.00% (Unspecified)
system.caches.L2Cache_Controller.NP.L1_GETS::total      1726329                       (Unspecified)
system.caches.L2Cache_Controller.NP.L1_GETX |         229     14.16%     14.16% |         206     12.74%     26.90% |         116      7.17%     34.08% |         164     10.14%     44.22% |         188     11.63%     55.84% |         252     15.58%     71.43% |         204     12.62%     84.04% |         258     15.96%    100.00% (Unspecified)
system.caches.L2Cache_Controller.NP.L1_GETX::total         1617                       (Unspecified)
system.caches.L2Cache_Controller.SS.L1_GET_INSTR |        1553     14.10%     14.10% |        1884     17.10%     31.20% |        1240     11.26%     42.45% |        1068      9.69%     52.15% |        1230     11.16%     63.31% |        1245     11.30%     74.61% |        1289     11.70%     86.31% |        1508     13.69%    100.00% (Unspecified)
system.caches.L2Cache_Controller.SS.L1_GET_INSTR::total        11017                       (Unspecified)
system.caches.L2Cache_Controller.SS.L1_GETS |       23808     12.74%     12.74% |       23152     12.39%     25.13% |       23785     12.73%     37.86% |       22846     12.23%     50.09% |       22852     12.23%     62.31% |       23237     12.44%     74.75% |       23205     12.42%     87.17% |       23979     12.83%    100.00% (Unspecified)
system.caches.L2Cache_Controller.SS.L1_GETS::total       186864                       (Unspecified)
system.caches.L2Cache_Controller.SS.L1_GETX |          18     42.86%     42.86% |           3      7.14%     50.00% |           0      0.00%     50.00% |           0      0.00%     50.00% |           4      9.52%     59.52% |           0      0.00%     59.52% |           9     21.43%     80.95% |           8     19.05%    100.00% (Unspecified)
system.caches.L2Cache_Controller.SS.L1_GETX::total           42                       (Unspecified)
system.caches.L2Cache_Controller.SS.L1_UPGRADE |        3932     12.26%     12.26% |        4022     12.54%     24.80% |        3943     12.29%     37.09% |        3911     12.19%     49.28% |        4004     12.48%     61.76% |        3996     12.46%     74.22% |        4046     12.61%     86.83% |        4224     13.17%    100.00% (Unspecified)
system.caches.L2Cache_Controller.SS.L1_UPGRADE::total        32078                       (Unspecified)
system.caches.L2Cache_Controller.SS.L2_Replacement |        1713     12.41%     12.41% |        1744     12.64%     25.05% |        1715     12.43%     37.48% |        1655     11.99%     49.47% |        1764     12.78%     62.25% |        1733     12.56%     74.81% |        1754     12.71%     87.52% |        1722     12.48%    100.00% (Unspecified)
system.caches.L2Cache_Controller.SS.L2_Replacement::total        13800                       (Unspecified)
system.caches.L2Cache_Controller.SS.L2_Replacement_clean |        2961     13.79%     13.79% |        2591     12.06%     25.85% |        2590     12.06%     37.91% |        2587     12.04%     49.95% |        2677     12.46%     62.42% |        2600     12.11%     74.52% |        2583     12.03%     86.55% |        2889     13.45%    100.00% (Unspecified)
system.caches.L2Cache_Controller.SS.L2_Replacement_clean::total        21478                       (Unspecified)
system.caches.L2Cache_Controller.M.L1_GET_INSTR |           0      0.00%      0.00% |           2     22.22%     22.22% |           1     11.11%     33.33% |           0      0.00%     33.33% |           0      0.00%     33.33% |           1     11.11%     44.44% |           3     33.33%     77.78% |           2     22.22%    100.00% (Unspecified)
system.caches.L2Cache_Controller.M.L1_GET_INSTR::total            9                       (Unspecified)
system.caches.L2Cache_Controller.M.L1_GETS |       11061     12.76%     12.76% |       10983     12.67%     25.44% |       10616     12.25%     37.69% |       10680     12.32%     50.01% |       10811     12.47%     62.48% |       10533     12.15%     74.64% |       10829     12.50%     87.13% |       11152     12.87%    100.00% (Unspecified)
system.caches.L2Cache_Controller.M.L1_GETS::total        86665                       (Unspecified)
system.caches.L2Cache_Controller.M.L1_GETX |         266     18.28%     18.28% |         182     12.51%     30.79% |          29      1.99%     32.78% |         132      9.07%     41.86% |         165     11.34%     53.20% |         310     21.31%     74.50% |         158     10.86%     85.36% |         213     14.64%    100.00% (Unspecified)
system.caches.L2Cache_Controller.M.L1_GETX::total         1455                       (Unspecified)
system.caches.L2Cache_Controller.M.L2_Replacement |       38662     12.53%     12.53% |       38468     12.46%     24.99% |       38601     12.51%     37.50% |       38592     12.50%     50.00% |       38468     12.46%     62.47% |       38583     12.50%     74.97% |       38652     12.52%     87.49% |       38609     12.51%    100.00% (Unspecified)
system.caches.L2Cache_Controller.M.L2_Replacement::total       308635                       (Unspecified)
system.caches.L2Cache_Controller.M.L2_Replacement_clean |      149955     12.49%     12.49% |      150148     12.50%     24.99% |      150315     12.52%     37.50% |      150174     12.50%     50.01% |      150129     12.50%     62.51% |      150111     12.50%     75.01% |      150134     12.50%     87.51% |      150018     12.49%    100.00% (Unspecified)
system.caches.L2Cache_Controller.M.L2_Replacement_clean::total      1200984                       (Unspecified)
system.caches.L2Cache_Controller.MT.L1_GETS |        7438     12.78%     12.78% |        7203     12.38%     25.16% |        7029     12.08%     37.24% |        7013     12.05%     49.29% |        7242     12.45%     61.74% |        7134     12.26%     74.00% |        7203     12.38%     86.38% |        7926     13.62%    100.00% (Unspecified)
system.caches.L2Cache_Controller.MT.L1_GETS::total        58188                       (Unspecified)
system.caches.L2Cache_Controller.MT.L1_GETX |           8      0.79%      0.79% |         877     86.57%     87.36% |           3      0.30%     87.66% |          26      2.57%     90.23% |          10      0.99%     91.21% |          45      4.44%     95.66% |           4      0.39%     96.05% |          40      3.95%    100.00% (Unspecified)
system.caches.L2Cache_Controller.MT.L1_GETX::total         1013                       (Unspecified)
system.caches.L2Cache_Controller.MT.L1_PUTX |      209643     12.52%     12.52% |      209472     12.51%     25.02% |      209181     12.49%     37.51% |      209335     12.50%     50.01% |      209271     12.49%     62.50% |      209186     12.49%     74.99% |      209353     12.50%     87.49% |      209539     12.51%    100.00% (Unspecified)
system.caches.L2Cache_Controller.MT.L1_PUTX::total      1674980                       (Unspecified)
system.caches.L2Cache_Controller.MT.L2_Replacement |         175     14.76%     14.76% |         157     13.24%     27.99% |          98      8.26%     36.26% |         143     12.06%     48.31% |         132     11.13%     59.44% |         164     13.83%     73.27% |         135     11.38%     84.65% |         182     15.35%    100.00% (Unspecified)
system.caches.L2Cache_Controller.MT.L2_Replacement::total         1186                       (Unspecified)
system.caches.L2Cache_Controller.MT.L2_Replacement_clean |        6757     12.55%     12.55% |        6829     12.69%     25.24% |        6683     12.41%     37.65% |        6810     12.65%     50.30% |        6684     12.42%     62.72% |        6737     12.51%     75.23% |        6612     12.28%     87.51% |        6723     12.49%    100.00% (Unspecified)
system.caches.L2Cache_Controller.MT.L2_Replacement_clean::total        53835                       (Unspecified)
system.caches.L2Cache_Controller.M_I.L1_GET_INSTR |           0      0.00%      0.00% |           0      0.00%      0.00% |           5     14.71%     14.71% |           0      0.00%     14.71% |          13     38.24%     52.94% |           0      0.00%     52.94% |           9     26.47%     79.41% |           7     20.59%    100.00% (Unspecified)
system.caches.L2Cache_Controller.M_I.L1_GET_INSTR::total           34                       (Unspecified)
system.caches.L2Cache_Controller.M_I.L1_GETS |          21     44.68%     44.68% |           4      8.51%     53.19% |           0      0.00%     53.19% |           0      0.00%     53.19% |           0      0.00%     53.19% |           1      2.13%     55.32% |           0      0.00%     55.32% |          21     44.68%    100.00% (Unspecified)
system.caches.L2Cache_Controller.M_I.L1_GETS::total           47                       (Unspecified)
system.caches.L2Cache_Controller.M_I.Mem_Ack |      200223     12.51%     12.51% |      199937     12.50%     25.01% |      200002     12.50%     37.51% |      199961     12.50%     50.01% |      199854     12.49%     62.50% |      199928     12.50%     75.00% |      199870     12.49%     87.49% |      200143     12.51%    100.00% (Unspecified)
system.caches.L2Cache_Controller.M_I.Mem_Ack::total      1599918                       (Unspecified)
system.caches.L2Cache_Controller.MT_I.WB_Data |         130     15.35%     15.35% |         107     12.63%     27.98% |          56      6.61%     34.59% |         103     12.16%     46.75% |          81      9.56%     56.32% |         134     15.82%     72.14% |          96     11.33%     83.47% |         140     16.53%    100.00% (Unspecified)
system.caches.L2Cache_Controller.MT_I.WB_Data::total          847                       (Unspecified)
system.caches.L2Cache_Controller.MT_I.Ack_all |          45     13.27%     13.27% |          50     14.75%     28.02% |          42     12.39%     40.41% |          40     11.80%     52.21% |          51     15.04%     67.26% |          30      8.85%     76.11% |          39     11.50%     87.61% |          42     12.39%    100.00% (Unspecified)
system.caches.L2Cache_Controller.MT_I.Ack_all::total          339                       (Unspecified)
system.caches.L2Cache_Controller.MCT_I.WB_Data |        1113     12.51%     12.51% |        1150     12.93%     25.44% |        1097     12.33%     37.78% |        1089     12.24%     50.02% |        1082     12.17%     62.19% |        1167     13.12%     75.31% |        1079     12.13%     87.44% |        1117     12.56%    100.00% (Unspecified)
system.caches.L2Cache_Controller.MCT_I.WB_Data::total         8894                       (Unspecified)
system.caches.L2Cache_Controller.MCT_I.Ack_all |        5644     12.56%     12.56% |        5679     12.64%     25.20% |        5586     12.43%     37.62% |        5721     12.73%     50.35% |        5602     12.47%     62.82% |        5570     12.39%     75.21% |        5533     12.31%     87.53% |        5606     12.47%    100.00% (Unspecified)
system.caches.L2Cache_Controller.MCT_I.Ack_all::total        44941                       (Unspecified)
system.caches.L2Cache_Controller.I_I.L1_GETS |           2     66.67%     66.67% |           0      0.00%     66.67% |           0      0.00%     66.67% |           0      0.00%     66.67% |           0      0.00%     66.67% |           0      0.00%     66.67% |           0      0.00%     66.67% |           1     33.33%    100.00% (Unspecified)
system.caches.L2Cache_Controller.I_I.L1_GETS::total            3                       (Unspecified)
system.caches.L2Cache_Controller.I_I.Ack |        5921     13.59%     13.59% |        5389     12.37%     25.96% |        5218     11.98%     37.94% |        5083     11.67%     49.61% |        5523     12.68%     62.29% |        5352     12.29%     74.58% |        5278     12.12%     86.69% |        5796     13.31%    100.00% (Unspecified)
system.caches.L2Cache_Controller.I_I.Ack::total        43560                       (Unspecified)
system.caches.L2Cache_Controller.I_I.Ack_all |        2961     13.79%     13.79% |        2591     12.06%     25.85% |        2590     12.06%     37.91% |        2587     12.04%     49.95% |        2677     12.46%     62.42% |        2600     12.11%     74.52% |        2583     12.03%     86.55% |        2889     13.45%    100.00% (Unspecified)
system.caches.L2Cache_Controller.I_I.Ack_all::total        21478                       (Unspecified)
system.caches.L2Cache_Controller.S_I.Ack |        4362     12.50%     12.50% |        4482     12.84%     25.34% |        4319     12.37%     37.71% |        4277     12.25%     49.97% |        4329     12.40%     62.37% |        4370     12.52%     74.89% |        4383     12.56%     87.45% |        4382     12.55%    100.00% (Unspecified)
system.caches.L2Cache_Controller.S_I.Ack::total        34904                       (Unspecified)
system.caches.L2Cache_Controller.S_I.Ack_all |        1713     12.41%     12.41% |        1744     12.64%     25.05% |        1715     12.43%     37.48% |        1655     11.99%     49.47% |        1764     12.78%     62.25% |        1733     12.56%     74.81% |        1754     12.71%     87.52% |        1722     12.48%    100.00% (Unspecified)
system.caches.L2Cache_Controller.S_I.Ack_all::total        13800                       (Unspecified)
system.caches.L2Cache_Controller.ISS.L1_GETS |          25     23.81%     23.81% |          18     17.14%     40.95% |           8      7.62%     48.57% |           8      7.62%     56.19% |           7      6.67%     62.86% |           8      7.62%     70.48% |           9      8.57%     79.05% |          22     20.95%    100.00% (Unspecified)
system.caches.L2Cache_Controller.ISS.L1_GETS::total          105                       (Unspecified)
system.caches.L2Cache_Controller.ISS.Mem_Data |      215958     12.51%     12.51% |      215721     12.50%     25.01% |      215871     12.51%     37.51% |      215829     12.50%     50.02% |      215656     12.49%     62.51% |      215671     12.49%     75.00% |      215660     12.49%     87.50% |      215857     12.50%    100.00% (Unspecified)
system.caches.L2Cache_Controller.ISS.Mem_Data::total      1726223                       (Unspecified)
system.caches.L2Cache_Controller.IS.L1_GET_INSTR |         203     12.16%     12.16% |         171     10.24%     22.40% |         190     11.38%     33.77% |         202     12.10%     45.87% |         255     15.27%     61.14% |         208     12.46%     73.59% |         243     14.55%     88.14% |         198     11.86%    100.00% (Unspecified)
system.caches.L2Cache_Controller.IS.L1_GET_INSTR::total         1670                       (Unspecified)
system.caches.L2Cache_Controller.IS.L1_GETS |          63     28.64%     28.64% |          50     22.73%     51.36% |          13      5.91%     57.27% |          13      5.91%     63.18% |           8      3.64%     66.82% |           7      3.18%     70.00% |           6      2.73%     72.73% |          60     27.27%    100.00% (Unspecified)
system.caches.L2Cache_Controller.IS.L1_GETS::total          220                       (Unspecified)
system.caches.L2Cache_Controller.IS.Mem_Data |         420     13.34%     13.34% |         394     12.51%     25.85% |         399     12.67%     38.52% |         352     11.18%     49.70% |         394     12.51%     62.21% |         389     12.35%     74.56% |         390     12.38%     86.95% |         411     13.05%    100.00% (Unspecified)
system.caches.L2Cache_Controller.IS.Mem_Data::total         3149                       (Unspecified)
system.caches.L2Cache_Controller.IM.L1_GETX |           0      0.00%      0.00% |          14    100.00%    100.00% |           0      0.00%    100.00% |           0      0.00%    100.00% |           0      0.00%    100.00% |           0      0.00%    100.00% |           0      0.00%    100.00% |           0      0.00%    100.00% (Unspecified)
system.caches.L2Cache_Controller.IM.L1_GETX::total           14                       (Unspecified)
system.caches.L2Cache_Controller.IM.Mem_Data |         229     14.16%     14.16% |         206     12.74%     26.90% |         116      7.17%     34.08% |         164     10.14%     44.22% |         188     11.63%     55.84% |         252     15.58%     71.43% |         204     12.62%     84.04% |         258     15.96%    100.00% (Unspecified)
system.caches.L2Cache_Controller.IM.Mem_Data::total         1617                       (Unspecified)
system.caches.L2Cache_Controller.SS_MB.L1_GETS |          23     22.33%     22.33% |           0      0.00%     22.33% |           0      0.00%     22.33% |           1      0.97%     23.30% |          26     25.24%     48.54% |           3      2.91%     51.46% |           6      5.83%     57.28% |          44     42.72%    100.00% (Unspecified)
system.caches.L2Cache_Controller.SS_MB.L1_GETS::total          103                       (Unspecified)
system.caches.L2Cache_Controller.SS_MB.L1_GETX |           0      0.00%      0.00% |           0      0.00%      0.00% |           0      0.00%      0.00% |           0      0.00%      0.00% |           0      0.00%      0.00% |           0      0.00%      0.00% |           0      0.00%      0.00% |           2    100.00%    100.00% (Unspecified)
system.caches.L2Cache_Controller.SS_MB.L1_GETX::total            2                       (Unspecified)
system.caches.L2Cache_Controller.SS_MB.Exclusive_Unblock |        3950     12.30%     12.30% |        4025     12.53%     24.83% |        3943     12.28%     37.10% |        3911     12.18%     49.28% |        4008     12.48%     61.76% |        3996     12.44%     74.20% |        4055     12.62%     86.82% |        4232     13.18%    100.00% (Unspecified)
system.caches.L2Cache_Controller.SS_MB.Exclusive_Unblock::total        32120                       (Unspecified)
system.caches.L2Cache_Controller.MT_MB.L1_GETS |           8      9.88%      9.88% |          15     18.52%     28.40% |          26     32.10%     60.49% |           7      8.64%     69.14% |           1      1.23%     70.37% |           1      1.23%     71.60% |           5      6.17%     77.78% |          18     22.22%    100.00% (Unspecified)
system.caches.L2Cache_Controller.MT_MB.L1_GETS::total           81                       (Unspecified)
system.caches.L2Cache_Controller.MT_MB.L1_GETX |           0      0.00%      0.00% |          90     64.29%     64.29% |           0      0.00%     64.29% |           0      0.00%     64.29% |           0      0.00%     64.29% |           0      0.00%     64.29% |           0      0.00%     64.29% |          50     35.71%    100.00% (Unspecified)
system.caches.L2Cache_Controller.MT_MB.L1_GETX::total          140                       (Unspecified)
system.caches.L2Cache_Controller.MT_MB.Exclusive_Unblock |      227522     12.52%     12.52% |      227969     12.55%     25.07% |      226635     12.47%     37.54% |      226831     12.48%     50.03% |      226830     12.48%     62.51% |      226811     12.48%     74.99% |      226855     12.49%     87.48% |      227520     12.52%    100.00% (Unspecified)
system.caches.L2Cache_Controller.MT_MB.Exclusive_Unblock::total      1816973                       (Unspecified)
system.caches.L2Cache_Controller.MT_IIB.L1_GETS |          44     18.64%     18.64% |          12      5.08%     23.73% |          21      8.90%     32.63% |           5      2.12%     34.75% |          41     17.37%     52.12% |          12      5.08%     57.20% |          20      8.47%     65.68% |          81     34.32%    100.00% (Unspecified)
system.caches.L2Cache_Controller.MT_IIB.L1_GETS::total          236                       (Unspecified)
system.caches.L2Cache_Controller.MT_IIB.L1_GETX |           0      0.00%      0.00% |           0      0.00%      0.00% |           0      0.00%      0.00% |           0      0.00%      0.00% |           0      0.00%      0.00% |           0      0.00%      0.00% |           0      0.00%      0.00% |           2    100.00%    100.00% (Unspecified)
system.caches.L2Cache_Controller.MT_IIB.L1_GETX::total            2                       (Unspecified)
system.caches.L2Cache_Controller.MT_IIB.WB_Data |        1549     12.41%     12.41% |        1538     12.33%     24.74% |        1491     11.95%     36.69% |        1513     12.13%     48.82% |        1555     12.46%     61.28% |        1507     12.08%     73.36% |        1565     12.54%     85.90% |        1759     14.10%    100.00% (Unspecified)
system.caches.L2Cache_Controller.MT_IIB.WB_Data::total        12477                       (Unspecified)
system.caches.L2Cache_Controller.MT_IIB.WB_Data_clean |        5889     12.89%     12.89% |        5665     12.40%     25.29% |        5538     12.12%     37.41% |        5493     12.02%     49.43% |        5679     12.43%     61.86% |        5627     12.31%     74.17% |        5636     12.33%     86.51% |        6166     13.49%    100.00% (Unspecified)
system.caches.L2Cache_Controller.MT_IIB.WB_Data_clean::total        45693                       (Unspecified)
system.caches.L2Cache_Controller.MT_IIB.Unblock |           0      0.00%      0.00% |           0      0.00%      0.00% |           0      0.00%      0.00% |           7     38.89%     38.89% |           8     44.44%     83.33% |           0      0.00%     83.33% |           2     11.11%     94.44% |           1      5.56%    100.00% (Unspecified)
system.caches.L2Cache_Controller.MT_IIB.Unblock::total           18                       (Unspecified)
system.caches.L2Cache_Controller.MT_IB.WB_Data |           0      0.00%      0.00% |           0      0.00%      0.00% |           0      0.00%      0.00% |           7     41.18%     41.18% |           8     47.06%     88.24% |           0      0.00%     88.24% |           2     11.76%    100.00% |           0      0.00%    100.00% (Unspecified)
system.caches.L2Cache_Controller.MT_IB.WB_Data::total           17                       (Unspecified)
system.caches.L2Cache_Controller.MT_IB.WB_Data_clean |           0      0.00%      0.00% |           0      0.00%      0.00% |           0      0.00%      0.00% |           0      0.00%      0.00% |           0      0.00%      0.00% |           0      0.00%      0.00% |           0      0.00%      0.00% |           1    100.00%    100.00% (Unspecified)
system.caches.L2Cache_Controller.MT_IB.WB_Data_clean::total            1                       (Unspecified)
system.caches.L2Cache_Controller.MT_SB.L1_GETS |           6     33.33%     33.33% |           1      5.56%     38.89% |           1      5.56%     44.44% |           3     16.67%     61.11% |           4     22.22%     83.33% |           0      0.00%     83.33% |           0      0.00%     83.33% |           3     16.67%    100.00% (Unspecified)
system.caches.L2Cache_Controller.MT_SB.L1_GETS::total           18                       (Unspecified)
system.caches.L2Cache_Controller.MT_SB.L1_UPGRADE |           1     11.11%     11.11% |           1     11.11%     22.22% |           0      0.00%     22.22% |           1     11.11%     33.33% |           1     11.11%     44.44% |           1     11.11%     55.56% |           4     44.44%    100.00% |           0      0.00%    100.00% (Unspecified)
system.caches.L2Cache_Controller.MT_SB.L1_UPGRADE::total            9                       (Unspecified)
system.caches.L2Cache_Controller.MT_SB.Unblock |        7438     12.79%     12.79% |        7203     12.38%     25.17% |        7029     12.08%     37.25% |        7006     12.04%     49.30% |        7234     12.44%     61.73% |        7134     12.26%     74.00% |        7201     12.38%     86.38% |        7925     13.62%    100.00% (Unspecified)
system.caches.L2Cache_Controller.MT_SB.Unblock::total        58170                       (Unspecified)
system.caches.RequestType.LD.latency_hist_seqr::bucket_size          512                       (Unspecified)
system.caches.RequestType.LD.latency_hist_seqr::max_bucket         5119                       (Unspecified)
system.caches.RequestType.LD.latency_hist_seqr::samples    103807733                       (Unspecified)
system.caches.RequestType.LD.latency_hist_seqr::mean     8.325923                       (Unspecified)
system.caches.RequestType.LD.latency_hist_seqr::gmean     1.115595                       (Unspecified)
system.caches.RequestType.LD.latency_hist_seqr::stdev    65.724008                       (Unspecified)
system.caches.RequestType.LD.latency_hist_seqr |   103441612     99.65%     99.65% |      334430      0.32%     99.97% |        6463      0.01%     99.98% |        7943      0.01%     99.98% |       14600      0.01%    100.00% |        2482      0.00%    100.00% |         171      0.00%    100.00% |          32      0.00%    100.00% |           0      0.00%    100.00% |           0      0.00%    100.00% (Unspecified)
system.caches.RequestType.LD.latency_hist_seqr::total    103807733                       (Unspecified)
system.caches.RequestType.LD.hit_latency_hist_seqr::bucket_size            1                       (Unspecified)
system.caches.RequestType.LD.hit_latency_hist_seqr::max_bucket            9                       (Unspecified)
system.caches.RequestType.LD.hit_latency_hist_seqr::samples    101749363                       (Unspecified)
system.caches.RequestType.LD.hit_latency_hist_seqr::mean     1.001956                       (Unspecified)
system.caches.RequestType.LD.hit_latency_hist_seqr::gmean     1.001357                       (Unspecified)
system.caches.RequestType.LD.hit_latency_hist_seqr::stdev     0.044187                       (Unspecified)
system.caches.RequestType.LD.hit_latency_hist_seqr |           0      0.00%      0.00% |   101550324     99.80%     99.80% |      199034      0.20%    100.00% |           5      0.00%    100.00% |           0      0.00%    100.00% |           0      0.00%    100.00% |           0      0.00%    100.00% |           0      0.00%    100.00% |           0      0.00%    100.00% |           0      0.00%    100.00% (Unspecified)
system.caches.RequestType.LD.hit_latency_hist_seqr::total    101749363                       (Unspecified)
system.caches.RequestType.LD.miss_latency_hist_seqr::bucket_size          512                       (Unspecified)
system.caches.RequestType.LD.miss_latency_hist_seqr::max_bucket         5119                       (Unspecified)
system.caches.RequestType.LD.miss_latency_hist_seqr::samples      2058370                       (Unspecified)
system.caches.RequestType.LD.miss_latency_hist_seqr::mean   370.364291                       (Unspecified)
system.caches.RequestType.LD.miss_latency_hist_seqr::gmean   232.668535                       (Unspecified)
system.caches.RequestType.LD.miss_latency_hist_seqr::stdev   290.043080                       (Unspecified)
system.caches.RequestType.LD.miss_latency_hist_seqr |     1692249     82.21%     82.21% |      334430     16.25%     98.46% |        6463      0.31%     98.77% |        7943      0.39%     99.16% |       14600      0.71%     99.87% |        2482      0.12%     99.99% |         171      0.01%    100.00% |          32      0.00%    100.00% |           0      0.00%    100.00% |           0      0.00%    100.00% (Unspecified)
system.caches.RequestType.LD.miss_latency_hist_seqr::total      2058370                       (Unspecified)
system.caches.RequestType.ST.latency_hist_seqr::bucket_size          512                       (Unspecified)
system.caches.RequestType.ST.latency_hist_seqr::max_bucket         5119                       (Unspecified)
system.caches.RequestType.ST.latency_hist_seqr::samples      2518877                       (Unspecified)
system.caches.RequestType.ST.latency_hist_seqr::mean     1.987765                       (Unspecified)
system.caches.RequestType.ST.latency_hist_seqr::gmean     1.571943                       (Unspecified)
system.caches.RequestType.ST.latency_hist_seqr::stdev     9.191687                       (Unspecified)
system.caches.RequestType.ST.latency_hist_seqr |     2518740     99.99%     99.99% |         120      0.00%    100.00% |           4      0.00%    100.00% |           6      0.00%    100.00% |           5      0.00%    100.00% |           2      0.00%    100.00% |           0      0.00%    100.00% |           0      0.00%    100.00% |           0      0.00%    100.00% |           0      0.00%    100.00% (Unspecified)
system.caches.RequestType.ST.latency_hist_seqr::total      2518877                       (Unspecified)
system.caches.RequestType.ST.hit_latency_hist_seqr::bucket_size          128                       (Unspecified)
system.caches.RequestType.ST.hit_latency_hist_seqr::max_bucket         1279                       (Unspecified)
system.caches.RequestType.ST.hit_latency_hist_seqr::samples      2485254                       (Unspecified)
system.caches.RequestType.ST.hit_latency_hist_seqr::mean     1.604308                       (Unspecified)
system.caches.RequestType.ST.hit_latency_hist_seqr::gmean     1.517396                       (Unspecified)
system.caches.RequestType.ST.hit_latency_hist_seqr::stdev     1.198224                       (Unspecified)
system.caches.RequestType.ST.hit_latency_hist_seqr |     2485235    100.00%    100.00% |           7      0.00%    100.00% |           8      0.00%    100.00% |           1      0.00%    100.00% |           0      0.00%    100.00% |           2      0.00%    100.00% |           1      0.00%    100.00% |           0      0.00%    100.00% |           0      0.00%    100.00% |           0      0.00%    100.00% (Unspecified)
system.caches.RequestType.ST.hit_latency_hist_seqr::total      2485254                       (Unspecified)
system.caches.RequestType.ST.miss_latency_hist_seqr::bucket_size          512                       (Unspecified)
system.caches.RequestType.ST.miss_latency_hist_seqr::max_bucket         5119                       (Unspecified)
system.caches.RequestType.ST.miss_latency_hist_seqr::samples        33623                       (Unspecified)
system.caches.RequestType.ST.miss_latency_hist_seqr::mean    30.331083                       (Unspecified)
system.caches.RequestType.ST.miss_latency_hist_seqr::gmean    21.385973                       (Unspecified)
system.caches.RequestType.ST.miss_latency_hist_seqr::stdev    73.547263                       (Unspecified)
system.caches.RequestType.ST.miss_latency_hist_seqr |       33489     99.60%     99.60% |         117      0.35%     99.95% |           4      0.01%     99.96% |           6      0.02%     99.98% |           5      0.01%     99.99% |           2      0.01%    100.00% |           0      0.00%    100.00% |           0      0.00%    100.00% |           0      0.00%    100.00% |           0      0.00%    100.00% (Unspecified)
system.caches.RequestType.ST.miss_latency_hist_seqr::total        33623                       (Unspecified)
system.caches.RequestType.IFETCH.latency_hist_seqr::bucket_size          256                       (Unspecified)
system.caches.RequestType.IFETCH.latency_hist_seqr::max_bucket         2559                       (Unspecified)
system.caches.RequestType.IFETCH.latency_hist_seqr::samples    110433049                       (Unspecified)
system.caches.RequestType.IFETCH.latency_hist_seqr::mean     1.013313                       (Unspecified)
system.caches.RequestType.IFETCH.latency_hist_seqr::gmean     1.000497                       (Unspecified)
system.caches.RequestType.IFETCH.latency_hist_seqr::stdev     2.040178                       (Unspecified)
system.caches.RequestType.IFETCH.latency_hist_seqr |   110430968    100.00%    100.00% |        1894      0.00%    100.00% |         147      0.00%    100.00% |          20      0.00%    100.00% |           1      0.00%    100.00% |           5      0.00%    100.00% |          12      0.00%    100.00% |           1      0.00%    100.00% |           1      0.00%    100.00% |           0      0.00%    100.00% (Unspecified)
system.caches.RequestType.IFETCH.latency_hist_seqr::total    110433049                       (Unspecified)
system.caches.RequestType.IFETCH.hit_latency_hist_seqr::bucket_size            1                       (Unspecified)
system.caches.RequestType.IFETCH.hit_latency_hist_seqr::max_bucket            9                       (Unspecified)
system.caches.RequestType.IFETCH.hit_latency_hist_seqr::samples    110417309                       (Unspecified)
system.caches.RequestType.IFETCH.hit_latency_hist_seqr::mean     1.000000                       (Unspecified)
system.caches.RequestType.IFETCH.hit_latency_hist_seqr::gmean     1.000000                       (Unspecified)
system.caches.RequestType.IFETCH.hit_latency_hist_seqr::stdev     0.000436                       (Unspecified)
system.caches.RequestType.IFETCH.hit_latency_hist_seqr |           0      0.00%      0.00% |   110417288    100.00%    100.00% |          21      0.00%    100.00% |           0      0.00%    100.00% |           0      0.00%    100.00% |           0      0.00%    100.00% |           0      0.00%    100.00% |           0      0.00%    100.00% |           0      0.00%    100.00% |           0      0.00%    100.00% (Unspecified)
system.caches.RequestType.IFETCH.hit_latency_hist_seqr::total    110417309                       (Unspecified)
system.caches.RequestType.IFETCH.miss_latency_hist_seqr::bucket_size          256                       (Unspecified)
system.caches.RequestType.IFETCH.miss_latency_hist_seqr::max_bucket         2559                       (Unspecified)
system.caches.RequestType.IFETCH.miss_latency_hist_seqr::samples        15740                       (Unspecified)
system.caches.RequestType.IFETCH.miss_latency_hist_seqr::mean    94.406544                       (Unspecified)
system.caches.RequestType.IFETCH.miss_latency_hist_seqr::gmean    32.524800                       (Unspecified)
system.caches.RequestType.IFETCH.miss_latency_hist_seqr::stdev   143.111663                       (Unspecified)
system.caches.RequestType.IFETCH.miss_latency_hist_seqr |       13659     86.78%     86.78% |        1894     12.03%     98.81% |         147      0.93%     99.75% |          20      0.13%     99.87% |           1      0.01%     99.88% |           5      0.03%     99.91% |          12      0.08%     99.99% |           1      0.01%     99.99% |           1      0.01%    100.00% |           0      0.00%    100.00% (Unspecified)
system.caches.RequestType.IFETCH.miss_latency_hist_seqr::total        15740                       (Unspecified)
system.caches.RequestType.RMW_Read.latency_hist_seqr::bucket_size          256                       (Unspecified)
system.caches.RequestType.RMW_Read.latency_hist_seqr::max_bucket         2559                       (Unspecified)
system.caches.RequestType.RMW_Read.latency_hist_seqr::samples        10001                       (Unspecified)
system.caches.RequestType.RMW_Read.latency_hist_seqr::mean    17.165483                       (Unspecified)
system.caches.RequestType.RMW_Read.latency_hist_seqr::gmean     1.614893                       (Unspecified)
system.caches.RequestType.RMW_Read.latency_hist_seqr::stdev    94.536333                       (Unspecified)
system.caches.RequestType.RMW_Read.latency_hist_seqr |        9705     97.04%     97.04% |         231      2.31%     99.35% |          54      0.54%     99.89% |           3      0.03%     99.92% |           1      0.01%     99.93% |           0      0.00%     99.93% |           1      0.01%     99.94% |           0      0.00%     99.94% |           5      0.05%     99.99% |           1      0.01%    100.00% (Unspecified)
system.caches.RequestType.RMW_Read.latency_hist_seqr::total        10001                       (Unspecified)
system.caches.RequestType.RMW_Read.hit_latency_hist_seqr::bucket_size          256                       (Unspecified)
system.caches.RequestType.RMW_Read.hit_latency_hist_seqr::max_bucket         2559                       (Unspecified)
system.caches.RequestType.RMW_Read.hit_latency_hist_seqr::samples         9031                       (Unspecified)
system.caches.RequestType.RMW_Read.hit_latency_hist_seqr::mean     4.031890                       (Unspecified)
[...]
system.o3Cpu7.iew.predictedTakenIncorrect       370022                       # Number of branches that were predicted taken incorrectly (Count)
system.o3Cpu7.iew.predictedNotTakenIncorrect       360623                       # Number of branches that were predicted not taken incorrectly (Count)
system.o3Cpu7.iew.branchMispredicts            730645                       # Number of branch mispredicts detected at execute (Count)
system.o3Cpu7.iew.instsToCommit              89854789                       # Cumulative count of insts sent to commit (Count)
system.o3Cpu7.iew.writebackCount             89330766                       # Cumulative count of insts written-back (Count)
system.o3Cpu7.iew.producerInst               76000191                       # Number of instructions producing a value (Count)
system.o3Cpu7.iew.consumerInst              107282906                       # Number of instructions consuming a value (Count)
system.o3Cpu7.iew.wbRate                     1.136139                       # Insts written-back per cycle ((Count/Cycle))
system.o3Cpu7.iew.wbFanout                   0.708409                       # Average fanout of values written-back ((Count/Count))
system.o3Cpu7.interrupts.clk_domain.clock         3200                       # Clock period in ticks (Tick)
system.o3Cpu7.lsq0.forwLoads                   160349                       # Number of loads that had data forwarded from stores (Count)
system.o3Cpu7.lsq0.squashedLoads             12795152                       # Number of loads squashed (Count)
system.o3Cpu7.lsq0.ignoredResponses                60                       # Number of memory responses ignored because the instruction is squashed (Count)
system.o3Cpu7.lsq0.memOrderViolation              359                       # Number of memory ordering violations (Count)
system.o3Cpu7.lsq0.squashedStores              863011                       # Number of stores squashed (Count)
system.o3Cpu7.lsq0.rescheduledLoads                31                       # Number of loads that were rescheduled (Count)
system.o3Cpu7.lsq0.blockedByCache              312776                       # Number of times an access to memory failed due to the cache being blocked (Count)
system.o3Cpu7.lsq0.loadToUse::samples         7593234                       # Distribution of cycle latency between the first time a load is issued and its completion (Unspecified)
system.o3Cpu7.lsq0.loadToUse::mean          31.385989                       # Distribution of cycle latency between the first time a load is issued and its completion (Unspecified)
system.o3Cpu7.lsq0.loadToUse::stdev        116.891145                       # Distribution of cycle latency between the first time a load is issued and its completion (Unspecified)
system.o3Cpu7.lsq0.loadToUse::0-9             6864535     90.40%     90.40% # Distribution of cycle latency between the first time a load is issued and its completion (Unspecified)
system.o3Cpu7.lsq0.loadToUse::10-19             43875      0.58%     90.98% # Distribution of cycle latency between the first time a load is issued and its completion (Unspecified)
system.o3Cpu7.lsq0.loadToUse::20-29             23594      0.31%     91.29% # Distribution of cycle latency between the first time a load is issued and its completion (Unspecified)
system.o3Cpu7.lsq0.loadToUse::30-39             18709      0.25%     91.54% # Distribution of cycle latency between the first time a load is issued and its completion (Unspecified)
system.o3Cpu7.lsq0.loadToUse::40-49             13812      0.18%     91.72% # Distribution of cycle latency between the first time a load is issued and its completion (Unspecified)
system.o3Cpu7.lsq0.loadToUse::50-59             14574      0.19%     91.91% # Distribution of cycle latency between the first time a load is issued and its completion (Unspecified)
system.o3Cpu7.lsq0.loadToUse::60-69             12052      0.16%     92.07% # Distribution of cycle latency between the first time a load is issued and its completion (Unspecified)
system.o3Cpu7.lsq0.loadToUse::70-79              9113      0.12%     92.19% # Distribution of cycle latency between the first time a load is issued and its completion (Unspecified)
system.o3Cpu7.lsq0.loadToUse::80-89              9145      0.12%     92.31% # Distribution of cycle latency between the first time a load is issued and its completion (Unspecified)
system.o3Cpu7.lsq0.loadToUse::90-99              5945      0.08%     92.39% # Distribution of cycle latency between the first time a load is issued and its completion (Unspecified)
system.o3Cpu7.lsq0.loadToUse::100-109            5608      0.07%     92.46% # Distribution of cycle latency between the first time a load is issued and its completion (Unspecified)
system.o3Cpu7.lsq0.loadToUse::110-119            4797      0.06%     92.53% # Distribution of cycle latency between the first time a load is issued and its completion (Unspecified)
system.o3Cpu7.lsq0.loadToUse::120-129            4181      0.06%     92.58% # Distribution of cycle latency between the first time a load is issued and its completion (Unspecified)
system.o3Cpu7.lsq0.loadToUse::130-139            5404      0.07%     92.65% # Distribution of cycle latency between the first time a load is issued and its completion (Unspecified)
system.o3Cpu7.lsq0.loadToUse::140-149            5438      0.07%     92.72% # Distribution of cycle latency between the first time a load is issued and its completion (Unspecified)
system.o3Cpu7.lsq0.loadToUse::150-159            6628      0.09%     92.81% # Distribution of cycle latency between the first time a load is issued and its completion (Unspecified)
system.o3Cpu7.lsq0.loadToUse::160-169            7572      0.10%     92.91% # Distribution of cycle latency between the first time a load is issued and its completion (Unspecified)
system.o3Cpu7.lsq0.loadToUse::170-179            7750      0.10%     93.01% # Distribution of cycle latency between the first time a load is issued and its completion (Unspecified)
system.o3Cpu7.lsq0.loadToUse::180-189            8954      0.12%     93.13% # Distribution of cycle latency between the first time a load is issued and its completion (Unspecified)
system.o3Cpu7.lsq0.loadToUse::190-199           12216      0.16%     93.29% # Distribution of cycle latency between the first time a load is issued and its completion (Unspecified)
system.o3Cpu7.lsq0.loadToUse::200-209           13060      0.17%     93.46% # Distribution of cycle latency between the first time a load is issued and its completion (Unspecified)
system.o3Cpu7.lsq0.loadToUse::210-219           20808      0.27%     93.74% # Distribution of cycle latency between the first time a load is issued and its completion (Unspecified)
system.o3Cpu7.lsq0.loadToUse::220-229           13849      0.18%     93.92% # Distribution of cycle latency between the first time a load is issued and its completion (Unspecified)
system.o3Cpu7.lsq0.loadToUse::230-239           14556      0.19%     94.11% # Distribution of cycle latency between the first time a load is issued and its completion (Unspecified)
system.o3Cpu7.lsq0.loadToUse::240-249           14026      0.18%     94.30% # Distribution of cycle latency between the first time a load is issued and its completion (Unspecified)
system.o3Cpu7.lsq0.loadToUse::250-259           14071      0.19%     94.48% # Distribution of cycle latency between the first time a load is issued and its completion (Unspecified)
system.o3Cpu7.lsq0.loadToUse::260-269           17587      0.23%     94.71% # Distribution of cycle latency between the first time a load is issued and its completion (Unspecified)
system.o3Cpu7.lsq0.loadToUse::270-279           16654      0.22%     94.93% # Distribution of cycle latency between the first time a load is issued and its completion (Unspecified)
system.o3Cpu7.lsq0.loadToUse::280-289           18700      0.25%     95.18% # Distribution of cycle latency between the first time a load is issued and its completion (Unspecified)
system.o3Cpu7.lsq0.loadToUse::290-299           16117      0.21%     95.39% # Distribution of cycle latency between the first time a load is issued and its completion (Unspecified)
system.o3Cpu7.lsq0.loadToUse::overflows        349904      4.61%    100.00% # Distribution of cycle latency between the first time a load is issued and its completion (Unspecified)
system.o3Cpu7.lsq0.loadToUse::min_value             2                       # Distribution of cycle latency between the first time a load is issued and its completion (Unspecified)
system.o3Cpu7.lsq0.loadToUse::max_value          3709                       # Distribution of cycle latency between the first time a load is issued and its completion (Unspecified)
system.o3Cpu7.lsq0.loadToUse::total           7593234                       # Distribution of cycle latency between the first time a load is issued and its completion (Unspecified)
system.o3Cpu7.mmu.dtb.rdAccesses             15507147                       # TLB accesses on read requests (Count)
system.o3Cpu7.mmu.dtb.wrAccesses               517820                       # TLB accesses on write requests (Count)
system.o3Cpu7.mmu.dtb.rdMisses                  23307                       # TLB misses on read requests (Count)
system.o3Cpu7.mmu.dtb.wrMisses                    719                       # TLB misses on write requests (Count)
system.o3Cpu7.mmu.dtb.walker.power_state.pwrStateResidencyTicks::UNDEFINED  16904779199                       # Cumulative time (in ticks) in various power states (Tick)
system.o3Cpu7.mmu.itb.rdAccesses                    0                       # TLB accesses on read requests (Count)
system.o3Cpu7.mmu.itb.wrAccesses             13731818                       # TLB accesses on write requests (Count)
system.o3Cpu7.mmu.itb.rdMisses                      0                       # TLB misses on read requests (Count)
system.o3Cpu7.mmu.itb.wrMisses                    147                       # TLB misses on write requests (Count)
system.o3Cpu7.mmu.itb.walker.power_state.pwrStateResidencyTicks::UNDEFINED  16904779199                       # Cumulative time (in ticks) in various power states (Tick)
system.o3Cpu7.power_state.numTransitions            6                       # Number of power state transitions (Count)
system.o3Cpu7.power_state.ticksClkGated::samples            3                       # Distribution of time spent in the clock gated state (Tick)
system.o3Cpu7.power_state.ticksClkGated::mean 54689066.666667                       # Distribution of time spent in the clock gated state (Tick)
system.o3Cpu7.power_state.ticksClkGated::stdev 36025127.422583                       # Distribution of time spent in the clock gated state (Tick)
system.o3Cpu7.power_state.ticksClkGated::1000-5e+10            3    100.00%    100.00% # Distribution of time spent in the clock gated state (Tick)
system.o3Cpu7.power_state.ticksClkGated::min_value     25113200                       # Distribution of time spent in the clock gated state (Tick)
system.o3Cpu7.power_state.ticksClkGated::max_value     94810000                       # Distribution of time spent in the clock gated state (Tick)
system.o3Cpu7.power_state.ticksClkGated::total            3                       # Distribution of time spent in the clock gated state (Tick)
system.o3Cpu7.power_state.pwrStateResidencyTicks::ON  12749227200                       # Cumulative time (in ticks) in various power states (Tick)
system.o3Cpu7.power_state.pwrStateResidencyTicks::CLK_GATED    164067200                       # Cumulative time (in ticks) in various power states (Tick)
system.o3Cpu7.power_state.pwrStateResidencyTicks::OFF   3991484799                       # Cumulative time (in ticks) in various power states (Tick)
system.o3Cpu7.rename.squashCycles              637487                       # Number of cycles rename is squashing (Cycle)
system.o3Cpu7.rename.idleCycles              11707282                       # Number of cycles rename is idle (Cycle)
system.o3Cpu7.rename.blockCycles             36639826                       # Number of cycles rename is blocking (Cycle)
system.o3Cpu7.rename.serializeStallCycles        86433                       # count of cycles rename stalled for serializing inst (Cycle)
system.o3Cpu7.rename.runCycles               13020838                       # Number of cycles rename is running (Cycle)
system.o3Cpu7.rename.unblockCycles           10400756                       # Number of cycles rename is unblocking (Cycle)
system.o3Cpu7.rename.renamedInsts           123426361                       # Number of instructions processed by rename (Count)
system.o3Cpu7.rename.ROBFullEvents             214208                       # Number of times rename has blocked due to ROB full (Count)
system.o3Cpu7.rename.IQFullEvents             2546130                       # Number of times rename has blocked due to IQ full (Count)
system.o3Cpu7.rename.LQFullEvents             8477239                       # Number of times rename has blocked due to LQ full (Count)
system.o3Cpu7.rename.SQFullEvents                4396                       # Number of times rename has blocked due to SQ full (Count)
system.o3Cpu7.rename.renamedOperands        229181891                       # Number of destination operands rename has renamed (Count)
system.o3Cpu7.rename.lookups                435738814                       # Number of register rename lookups that rename has made (Count)
system.o3Cpu7.rename.intLookups             161570866                       # Number of integer rename lookups (Count)
system.o3Cpu7.rename.fpLookups                   2268                       # Number of floating rename lookups (Count)
system.o3Cpu7.rename.committedMaps           89938346                       # Number of HB maps that are committed (Count)
system.o3Cpu7.rename.undoneMaps             139243248                       # Number of HB maps that are undone due to squashing (Count)
system.o3Cpu7.rename.serializing                 1307                       # count of serializing insts renamed (Count)
system.o3Cpu7.rename.tempSerializing             1360                       # count of temporary serializing insts renamed (Count)
system.o3Cpu7.rename.skidInsts               10127164                       # count of insts added to the skid buffer (Count)
system.o3Cpu7.rob.reads                     185038824                       # The number of ROB reads (Count)
system.o3Cpu7.rob.writes                    241258884                       # The number of ROB writes (Count)
system.o3Cpu7.thread_0.numInsts              30462721                       # Number of Instructions committed (Count)
system.o3Cpu7.thread_0.numOps                48805427                       # Number of Ops committed (Count)
system.o3Cpu7.thread_0.numMemRefs                   0                       # Number of Memory References (Count)
system.pc.bad_addr.power_state.pwrStateResidencyTicks::UNDEFINED  16904779199                       # Cumulative time (in ticks) in various power states (Tick)
system.pc.com_1.power_state.pwrStateResidencyTicks::UNDEFINED  16904779199                       # Cumulative time (in ticks) in various power states (Tick)
system.pc.default_bus.power_state.pwrStateResidencyTicks::UNDEFINED  16904779199                       # Cumulative time (in ticks) in various power states (Tick)
system.pc.empty_isa.power_state.pwrStateResidencyTicks::UNDEFINED  16904779199                       # Cumulative time (in ticks) in various power states (Tick)
system.pc.fake_com_2.power_state.pwrStateResidencyTicks::UNDEFINED  16904779199                       # Cumulative time (in ticks) in various power states (Tick)
system.pc.fake_com_3.power_state.pwrStateResidencyTicks::UNDEFINED  16904779199                       # Cumulative time (in ticks) in various power states (Tick)
system.pc.fake_com_4.power_state.pwrStateResidencyTicks::UNDEFINED  16904779199                       # Cumulative time (in ticks) in various power states (Tick)
system.pc.fake_floppy.power_state.pwrStateResidencyTicks::UNDEFINED  16904779199                       # Cumulative time (in ticks) in various power states (Tick)
system.pc.pci_host.power_state.pwrStateResidencyTicks::UNDEFINED  16904779199                       # Cumulative time (in ticks) in various power states (Tick)
system.pc.south_bridge.cmos.power_state.pwrStateResidencyTicks::UNDEFINED  16904779199                       # Cumulative time (in ticks) in various power states (Tick)
system.pc.south_bridge.dma1.power_state.pwrStateResidencyTicks::UNDEFINED  16904779199                       # Cumulative time (in ticks) in various power states (Tick)
system.pc.south_bridge.ide.disks0.IdeDisk.dmaReadFullPages            0                       # Number of full page size DMA reads (not PRD). (Count)
system.pc.south_bridge.ide.disks0.IdeDisk.dmaReadBytes            0                       # Number of bytes transfered via DMA reads (not PRD). (Byte)
system.pc.south_bridge.ide.disks0.IdeDisk.dmaReadTxs            0                       # Number of DMA read transactions (not PRD). (Count)
system.pc.south_bridge.ide.disks0.IdeDisk.dmaWriteFullPages            0                       # Number of full page size DMA writes. (Count)
system.pc.south_bridge.ide.disks0.IdeDisk.dmaWriteBytes            0                       # Number of bytes transfered via DMA writes. (Byte)
system.pc.south_bridge.ide.disks0.IdeDisk.dmaWriteTxs            0                       # Number of DMA write transactions. (Count)
system.pc.south_bridge.ide.disks1.IdeDisk.dmaReadFullPages            0                       # Number of full page size DMA reads (not PRD). (Count)
system.pc.south_bridge.ide.disks1.IdeDisk.dmaReadBytes            0                       # Number of bytes transfered via DMA reads (not PRD). (Byte)
system.pc.south_bridge.ide.disks1.IdeDisk.dmaReadTxs            0                       # Number of DMA read transactions (not PRD). (Count)
system.pc.south_bridge.ide.disks1.IdeDisk.dmaWriteFullPages            0                       # Number of full page size DMA writes. (Count)
system.pc.south_bridge.ide.disks1.IdeDisk.dmaWriteBytes            0                       # Number of bytes transfered via DMA writes. (Byte)
system.pc.south_bridge.ide.disks1.IdeDisk.dmaWriteTxs            0                       # Number of DMA write transactions. (Count)
system.pc.south_bridge.ide.power_state.pwrStateResidencyTicks::UNDEFINED  16904779199                       # Cumulative time (in ticks) in various power states (Tick)
system.pc.south_bridge.io_apic.power_state.pwrStateResidencyTicks::UNDEFINED  16904779199                       # Cumulative time (in ticks) in various power states (Tick)
system.pc.south_bridge.keyboard.power_state.pwrStateResidencyTicks::UNDEFINED  16904779199                       # Cumulative time (in ticks) in various power states (Tick)
system.pc.south_bridge.pic1.power_state.pwrStateResidencyTicks::UNDEFINED  16904779199                       # Cumulative time (in ticks) in various power states (Tick)
system.pc.south_bridge.pic2.power_state.pwrStateResidencyTicks::UNDEFINED  16904779199                       # Cumulative time (in ticks) in various power states (Tick)
system.pc.south_bridge.pit.power_state.pwrStateResidencyTicks::UNDEFINED  16904779199                       # Cumulative time (in ticks) in various power states (Tick)
system.pc.south_bridge.speaker.power_state.pwrStateResidencyTicks::UNDEFINED  16904779199                       # Cumulative time (in ticks) in various power states (Tick)
system.workload.inst.arm                            0                       # number of arm instructions executed (Count)
system.workload.inst.quiesce                        0                       # number of quiesce instructions executed (Count)

---------- End Simulation Statistics   ----------
