
---------- Begin Simulation Statistics ----------
simSeconds                                   0.047905                       # Number of seconds simulated (Second)
simTicks                                  47904607840                       # Number of ticks simulated (Tick)
finalTick                                274286989504800                       # Number of ticks from beginning of simulation (restored from checkpoints and never reset) (Tick)
simFreq                                  1000000000000                       # The number of ticks per simulated second ((Tick/Second))
hostSeconds                                   8318.15                       # Real time elapsed on the host (Second)
hostTickRate                                  5759044                       # The number of ticks simulated per host second (ticks/s) ((Tick/Second))
hostMemory                                   71760876                       # Number of bytes of host memory used (Byte)
simInsts                                    131266863                       # Number of instructions simulated (Count)
simOps                                      227095158                       # Number of ops (including micro ops) simulated (Count)
hostInstRate                                    15781                       # Simulator instruction rate (inst/s) ((Count/Second))
hostOpRate                                      27301                       # Simulator op (including micro ops) rate (op/s) ((Count/Second))
system.caches.delayHistogram::bucket_size           16                       # delay histogram for all message (Unspecified)
system.caches.delayHistogram::max_bucket          159                       # delay histogram for all message (Unspecified)
system.caches.delayHistogram::samples        46194984                       # delay histogram for all message (Unspecified)
system.caches.delayHistogram::mean           0.510899                       # delay histogram for all message (Unspecified)
system.caches.delayHistogram::stdev          2.002444                       # delay histogram for all message (Unspecified)
system.caches.delayHistogram             |    46097559     99.79%     99.79% |       96690      0.21%    100.00% |         604      0.00%    100.00% |          97      0.00%    100.00% |          33      0.00%    100.00% |           0      0.00%    100.00% |           1      0.00%    100.00% |           0      0.00%    100.00% |           0      0.00%    100.00% |           0      0.00%    100.00% # delay histogram for all message (Unspecified)
system.caches.delayHistogram::total          46194984                       # delay histogram for all message (Unspecified)
system.caches.m_outstandReqHistSeqr::bucket_size            2                       (Unspecified)
system.caches.m_outstandReqHistSeqr::max_bucket           19                       (Unspecified)
system.caches.m_outstandReqHistSeqr::samples    130126260                       (Unspecified)
system.caches.m_outstandReqHistSeqr::mean     1.915334                       (Unspecified)
system.caches.m_outstandReqHistSeqr::gmean     1.648045                       (Unspecified)
system.caches.m_outstandReqHistSeqr::stdev     1.131619                       (Unspecified)
system.caches.m_outstandReqHistSeqr      |    62507642     48.04%     48.04% |    53721228     41.28%     89.32% |    12964250      9.96%     99.28% |      895480      0.69%     99.97% |       35849      0.03%    100.00% |        1484      0.00%    100.00% |         274      0.00%    100.00% |          23      0.00%    100.00% |          30      0.00%    100.00% |           0      0.00%    100.00% (Unspecified)
system.caches.m_outstandReqHistSeqr::total    130126260                       (Unspecified)
system.caches.m_latencyHistSeqr::bucket_size          512                       (Unspecified)
system.caches.m_latencyHistSeqr::max_bucket         5119                       (Unspecified)
system.caches.m_latencyHistSeqr::samples    130129548                       (Unspecified)
system.caches.m_latencyHistSeqr::mean       20.822066                       (Unspecified)
system.caches.m_latencyHistSeqr::gmean       1.343484                       (Unspecified)
system.caches.m_latencyHistSeqr::stdev     110.023255                       (Unspecified)
system.caches.m_latencyHistSeqr          |   128464239     98.72%     98.72% |     1577361      1.21%     99.93% |        9588      0.01%     99.94% |       17044      0.01%     99.95% |       51747      0.04%     99.99% |        9402      0.01%    100.00% |         136      0.00%    100.00% |          30      0.00%    100.00% |           1      0.00%    100.00% |           0      0.00%    100.00% (Unspecified)
system.caches.m_latencyHistSeqr::total      130129548                       (Unspecified)
system.caches.m_hitLatencyHistSeqr::bucket_size          256                       (Unspecified)
system.caches.m_hitLatencyHistSeqr::max_bucket         2559                       (Unspecified)
system.caches.m_hitLatencyHistSeqr::samples    122390990                       (Unspecified)
system.caches.m_hitLatencyHistSeqr::mean     1.002989                       (Unspecified)
system.caches.m_hitLatencyHistSeqr::gmean     1.000743                       (Unspecified)
system.caches.m_hitLatencyHistSeqr::stdev     1.171087                       (Unspecified)
system.caches.m_hitLatencyHistSeqr       |   122390586    100.00%    100.00% |         252      0.00%    100.00% |         113      0.00%    100.00% |          21      0.00%    100.00% |           5      0.00%    100.00% |           1      0.00%    100.00% |           4      0.00%    100.00% |           4      0.00%    100.00% |           1      0.00%    100.00% |           3      0.00%    100.00% (Unspecified)
system.caches.m_hitLatencyHistSeqr::total    122390990                       (Unspecified)
system.caches.m_missLatencyHistSeqr::bucket_size          512                       (Unspecified)
system.caches.m_missLatencyHistSeqr::max_bucket         5119                       (Unspecified)
system.caches.m_missLatencyHistSeqr::samples      7738558                       (Unspecified)
system.caches.m_missLatencyHistSeqr::mean   334.275345                       (Unspecified)
system.caches.m_missLatencyHistSeqr::gmean   141.652751                       (Unspecified)
system.caches.m_missLatencyHistSeqr::stdev   314.753006                       (Unspecified)
system.caches.m_missLatencyHistSeqr      |     6073401     78.48%     78.48% |     1577227     20.38%     98.86% |        9582      0.12%     98.99% |       17036      0.22%     99.21% |       51743      0.67%     99.88% |        9402      0.12%    100.00% |         136      0.00%    100.00% |          30      0.00%    100.00% |           1      0.00%    100.00% |           0      0.00%    100.00% (Unspecified)
system.caches.m_missLatencyHistSeqr::total      7738558                       (Unspecified)
system.caches.delayVCHist.vnet_0::bucket_size           16                       # delay histogram for vnet_0 (Unspecified)
system.caches.delayVCHist.vnet_0::max_bucket          159                       # delay histogram for vnet_0 (Unspecified)
system.caches.delayVCHist.vnet_0::samples     19073709                       # delay histogram for vnet_0 (Unspecified)
system.caches.delayVCHist.vnet_0::mean       0.938821                       # delay histogram for vnet_0 (Unspecified)
system.caches.delayVCHist.vnet_0::stdev      2.734787                       # delay histogram for vnet_0 (Unspecified)
system.caches.delayVCHist.vnet_0         |    18996334     99.59%     99.59% |       76645      0.40%    100.00% |         599      0.00%    100.00% |          97      0.00%    100.00% |          33      0.00%    100.00% |           0      0.00%    100.00% |           1      0.00%    100.00% |           0      0.00%    100.00% |           0      0.00%    100.00% |           0      0.00%    100.00% # delay histogram for vnet_0 (Unspecified)
system.caches.delayVCHist.vnet_0::total      19073709                       # delay histogram for vnet_0 (Unspecified)
system.caches.delayVCHist.vnet_1::bucket_size            4                       # delay histogram for vnet_1 (Unspecified)
system.caches.delayVCHist.vnet_1::max_bucket           39                       # delay histogram for vnet_1 (Unspecified)
system.caches.delayVCHist.vnet_1::samples     24954024                       # delay histogram for vnet_1 (Unspecified)
system.caches.delayVCHist.vnet_1::mean       0.228149                       # delay histogram for vnet_1 (Unspecified)
system.caches.delayVCHist.vnet_1::stdev      1.209816                       # delay histogram for vnet_1 (Unspecified)
system.caches.delayVCHist.vnet_1         |    24228462     97.09%     97.09% |      461263      1.85%     98.94% |      229652      0.92%     99.86% |       14597      0.06%     99.92% |       18512      0.07%     99.99% |         614      0.00%    100.00% |         763      0.00%    100.00% |         156      0.00%    100.00% |           2      0.00%    100.00% |           3      0.00%    100.00% # delay histogram for vnet_1 (Unspecified)
system.caches.delayVCHist.vnet_1::total      24954024                       # delay histogram for vnet_1 (Unspecified)
system.caches.delayVCHist.vnet_2::bucket_size            1                       # delay histogram for vnet_2 (Unspecified)
system.caches.delayVCHist.vnet_2::max_bucket            9                       # delay histogram for vnet_2 (Unspecified)
system.caches.delayVCHist.vnet_2::samples      2167251                       # delay histogram for vnet_2 (Unspecified)
system.caches.delayVCHist.vnet_2::mean       0.000440                       # delay histogram for vnet_2 (Unspecified)
system.caches.delayVCHist.vnet_2::stdev      0.029668                       # delay histogram for vnet_2 (Unspecified)
system.caches.delayVCHist.vnet_2         |     2166774     99.98%     99.98% |           0      0.00%     99.98% |         477      0.02%    100.00% |           0      0.00%    100.00% |           0      0.00%    100.00% |           0      0.00%    100.00% |           0      0.00%    100.00% |           0      0.00%    100.00% |           0      0.00%    100.00% |           0      0.00%    100.00% # delay histogram for vnet_2 (Unspecified)
system.caches.delayVCHist.vnet_2::total       2167251                       # delay histogram for vnet_2 (Unspecified)
system.caches.L1Cache_Controller.Load    |     7595560     12.44%     12.44% |     7634550     12.50%     24.93% |     7668112     12.55%     37.49% |     7640127     12.51%     50.00% |     7617907     12.47%     62.47% |     7647554     12.52%     74.99% |     7648980     12.52%     87.51% |     7626617     12.49%    100.00% (Unspecified)
system.caches.L1Cache_Controller.Load::total     61079407                       (Unspecified)
system.caches.L1Cache_Controller.Ifetch  |     7368123     12.46%     12.46% |     7356862     12.44%     24.90% |     7382794     12.49%     37.39% |     7387846     12.50%     49.89% |     7398782     12.51%     62.40% |     7405010     12.52%     74.92% |     7418482     12.55%     87.47% |     7408444     12.53%    100.00% (Unspecified)
system.caches.L1Cache_Controller.Ifetch::total     59126343                       (Unspecified)
system.caches.L1Cache_Controller.Store   |     1244566     12.54%     12.54% |     1234580     12.44%     24.98% |     1236803     12.46%     37.44% |     1239473     12.49%     49.93% |     1244495     12.54%     62.48% |     1239298     12.49%     74.96% |     1242809     12.52%     87.49% |     1241794     12.51%    100.00% (Unspecified)
system.caches.L1Cache_Controller.Store::total      9923818                       (Unspecified)
system.caches.L1Cache_Controller.Inv     |      207824     12.62%     12.62% |      205706     12.49%     25.11% |      205681     12.49%     37.60% |      205595     12.48%     50.09% |      205412     12.47%     62.56% |      205584     12.48%     75.04% |      205407     12.47%     87.52% |      205569     12.48%    100.00% (Unspecified)
system.caches.L1Cache_Controller.Inv::total      1646778                       (Unspecified)
system.caches.L1Cache_Controller.L1_Replacement |      949212     12.49%     12.49% |      943936     12.42%     24.91% |      949644     12.50%     37.41% |      949725     12.50%     49.91% |      948834     12.49%     62.39% |      952634     12.54%     74.93% |      952631     12.54%     87.47% |      952530     12.53%    100.00% (Unspecified)
system.caches.L1Cache_Controller.L1_Replacement::total      7599146                       (Unspecified)
system.caches.L1Cache_Controller.Fwd_GETX |          11      7.38%      7.38% |          37     24.83%     32.21% |          23     15.44%     47.65% |          11      7.38%     55.03% |          23     15.44%     70.47% |          17     11.41%     81.88% |          13      8.72%     90.60% |          14      9.40%    100.00% (Unspecified)
system.caches.L1Cache_Controller.Fwd_GETX::total          149                       (Unspecified)
system.caches.L1Cache_Controller.Fwd_GETS |       65912     12.67%     12.67% |       64988     12.49%     25.16% |       65071     12.51%     37.66% |       65116     12.51%     50.18% |       64861     12.47%     62.64% |       63788     12.26%     74.90% |       65280     12.55%     87.45% |       65302     12.55%    100.00% (Unspecified)
system.caches.L1Cache_Controller.Fwd_GETS::total       520318                       (Unspecified)
system.caches.L1Cache_Controller.Fwd_GET_INSTR |           6    100.00%    100.00% |           0      0.00%    100.00% |           0      0.00%    100.00% |           0      0.00%    100.00% |           0      0.00%    100.00% |           0      0.00%    100.00% |           0      0.00%    100.00% |           0      0.00%    100.00% (Unspecified)
system.caches.L1Cache_Controller.Fwd_GET_INSTR::total            6                       (Unspecified)
system.caches.L1Cache_Controller.Data    |          34    100.00%    100.00% |           0      0.00%    100.00% |           0      0.00%    100.00% |           0      0.00%    100.00% |           0      0.00%    100.00% |           0      0.00%    100.00% |           0      0.00%    100.00% |           0      0.00%    100.00% (Unspecified)
system.caches.L1Cache_Controller.Data::total           34                       (Unspecified)
system.caches.L1Cache_Controller.Data_Exclusive |      705077     12.47%     12.47% |      703342     12.44%     24.91% |      706855     12.50%     37.42% |      706653     12.50%     49.91% |      705771     12.48%     62.40% |      707501     12.51%     74.91% |      708768     12.54%     87.45% |      709532     12.55%    100.00% (Unspecified)
system.caches.L1Cache_Controller.Data_Exclusive::total      5653499                       (Unspecified)
system.caches.L1Cache_Controller.DataS_fromL1 |       65143     12.52%     12.52% |       65359     12.56%     25.08% |       64962     12.48%     37.57% |       64677     12.43%     50.00% |       64577     12.41%     62.41% |       65748     12.64%     75.04% |       64989     12.49%     87.53% |       64869     12.47%    100.00% (Unspecified)
system.caches.L1Cache_Controller.DataS_fromL1::total       520324                       (Unspecified)
system.caches.L1Cache_Controller.Data_all_Acks |      186498     12.53%     12.53% |      183228     12.31%     24.85% |      185839     12.49%     37.34% |      186291     12.52%     49.86% |      186235     12.52%     62.38% |      187139     12.58%     74.96% |      186701     12.55%     87.50% |      185930     12.50%    100.00% (Unspecified)
system.caches.L1Cache_Controller.Data_all_Acks::total      1487861                       (Unspecified)
system.caches.L1Cache_Controller.Ack     |       10910     13.49%     13.49% |        9860     12.19%     25.68% |        9957     12.31%     38.00% |        9947     12.30%     50.30% |        9914     12.26%     62.56% |       10052     12.43%     74.99% |       10229     12.65%     87.64% |        9998     12.36%    100.00% (Unspecified)
system.caches.L1Cache_Controller.Ack::total        80867                       (Unspecified)
system.caches.L1Cache_Controller.Ack_all |        9942     12.93%     12.93% |        9457     12.30%     25.23% |        9455     12.30%     37.53% |        9503     12.36%     49.90% |        9483     12.34%     62.23% |        9686     12.60%     74.83% |        9763     12.70%     87.53% |        9585     12.47%    100.00% (Unspecified)
system.caches.L1Cache_Controller.Ack_all::total        76874                       (Unspecified)
system.caches.L1Cache_Controller.WB_Ack  |      635311     12.53%     12.53% |      628808     12.41%     24.94% |      632785     12.48%     37.42% |      632645     12.48%     49.90% |      633023     12.49%     62.39% |      635202     12.53%     74.92% |      635417     12.54%     87.46% |      635746     12.54%    100.00% (Unspecified)
system.caches.L1Cache_Controller.WB_Ack::total      5068937                       (Unspecified)
system.caches.L1Cache_Controller.NP.Load |      941854     12.46%     12.46% |      939332     12.43%     24.89% |      945031     12.50%     37.39% |      945117     12.50%     49.89% |      943175     12.48%     62.37% |      947995     12.54%     74.92% |      947997     12.54%     87.46% |      948062     12.54%    100.00% (Unspecified)
system.caches.L1Cache_Controller.NP.Load::total      7558563                       (Unspecified)
system.caches.L1Cache_Controller.NP.Ifetch |        5133     19.71%     19.71% |        2990     11.48%     31.20% |        3010     11.56%     42.76% |        2993     11.49%     54.25% |        3020     11.60%     65.85% |        3019     11.59%     77.44% |        3017     11.59%     89.03% |        2856     10.97%    100.00% (Unspecified)
system.caches.L1Cache_Controller.NP.Ifetch::total        26038                       (Unspecified)
system.caches.L1Cache_Controller.NP.Store |        2371     15.72%     15.72% |        1666     11.05%     26.77% |        1661     11.01%     37.78% |        1671     11.08%     48.86% |        2701     17.91%     66.76% |        1674     11.10%     77.86% |        1671     11.08%     88.94% |        1668     11.06%    100.00% (Unspecified)
system.caches.L1Cache_Controller.NP.Store::total        15083                       (Unspecified)
system.caches.L1Cache_Controller.NP.Inv  |      167404     12.61%     12.61% |      164817     12.42%     25.03% |      165559     12.48%     37.51% |      165665     12.48%     49.99% |      165491     12.47%     62.46% |      166116     12.52%     74.98% |      166119     12.52%     87.50% |      165915     12.50%    100.00% (Unspecified)
system.caches.L1Cache_Controller.NP.Inv::total      1327086                       (Unspecified)
system.caches.L1Cache_Controller.I.Load  |        1534     10.66%     10.66% |        2007     13.95%     24.60% |        1994     13.85%     38.46% |        1891     13.14%     51.60% |        1748     12.15%     63.74% |        1752     12.17%     75.92% |        1813     12.60%     88.51% |        1653     11.49%    100.00% (Unspecified)
system.caches.L1Cache_Controller.I.Load::total        14392                       (Unspecified)
system.caches.L1Cache_Controller.I.Ifetch |        5809     12.31%     12.31% |        5889     12.48%     24.78% |        5890     12.48%     37.26% |        5896     12.49%     49.75% |        5884     12.47%     62.22% |        5891     12.48%     74.70% |        5910     12.52%     87.22% |        6033     12.78%    100.00% (Unspecified)
system.caches.L1Cache_Controller.I.Ifetch::total        47202                       (Unspecified)
system.caches.L1Cache_Controller.I.Store |          50     11.85%     11.85% |          47     11.14%     22.99% |          67     15.88%     38.86% |          54     12.80%     51.66% |          49     11.61%     63.27% |          53     12.56%     75.83% |          49     11.61%     87.44% |          53     12.56%    100.00% (Unspecified)
system.caches.L1Cache_Controller.I.Store::total          422                       (Unspecified)
system.caches.L1Cache_Controller.I.L1_Replacement |       32914     11.69%     11.69% |       36379     12.92%     24.60% |       35612     12.64%     37.24% |       35556     12.62%     49.87% |       35707     12.68%     62.55% |       35176     12.49%     75.03% |       34940     12.40%     87.44% |       35381     12.56%    100.00% (Unspecified)
system.caches.L1Cache_Controller.I.L1_Replacement::total       281665                       (Unspecified)
system.caches.L1Cache_Controller.S.Load  |     3788569     12.38%     12.38% |     3846949     12.57%     24.96% |     3861789     12.62%     37.58% |     3834450     12.53%     50.11% |     3790564     12.39%     62.50% |     3833816     12.53%     75.03% |     3827824     12.51%     87.54% |     3812181     12.46%    100.00% (Unspecified)
system.caches.L1Cache_Controller.S.Load::total     30596142                       (Unspecified)
system.caches.L1Cache_Controller.S.Ifetch |     7357181     12.46%     12.46% |     7347983     12.44%     24.90% |     7373894     12.49%     37.39% |     7378957     12.50%     49.88% |     7389878     12.51%     62.40% |     7396100     12.52%     74.92% |     7409555     12.55%     87.47% |     7399555     12.53%    100.00% (Unspecified)
system.caches.L1Cache_Controller.S.Ifetch::total     59053103                       (Unspecified)
system.caches.L1Cache_Controller.S.Store |        9911     12.89%     12.89% |        9458     12.30%     25.20% |        9459     12.30%     37.50% |        9506     12.37%     49.87% |        9490     12.35%     62.21% |        9691     12.61%     74.82% |        9766     12.70%     87.52% |        9592     12.48%    100.00% (Unspecified)
system.caches.L1Cache_Controller.S.Store::total        76873                       (Unspecified)
system.caches.L1Cache_Controller.S.Inv   |       22918     12.84%     12.84% |       22524     12.62%     25.45% |       22307     12.50%     37.95% |       22210     12.44%     50.39% |       22243     12.46%     62.85% |       21926     12.28%     75.13% |       22104     12.38%     87.51% |       22294     12.49%    100.00% (Unspecified)
system.caches.L1Cache_Controller.S.Inv::total       178526                       (Unspecified)
system.caches.L1Cache_Controller.S.L1_Replacement |      280986     12.50%     12.50% |      278749     12.40%     24.89% |      281247     12.51%     37.40% |      281524     12.52%     49.92% |      280104     12.46%     62.38% |      282256     12.55%     74.93% |      282274     12.55%     87.49% |      281403     12.51%    100.00% (Unspecified)
system.caches.L1Cache_Controller.S.L1_Replacement::total      2248543                       (Unspecified)
system.caches.L1Cache_Controller.E.Load  |     1569843     12.48%     12.48% |     1557611     12.38%     24.86% |     1570789     12.48%     37.34% |     1565461     12.44%     49.78% |     1593848     12.67%     62.45% |     1575673     12.52%     74.97% |     1576870     12.53%     87.50% |     1572176     12.50%    100.00% (Unspecified)
system.caches.L1Cache_Controller.E.Load::total     12582271                       (Unspecified)
system.caches.L1Cache_Controller.E.Store |      238316     12.46%     12.46% |      238353     12.47%     24.93% |      238775     12.49%     37.42% |      239309     12.52%     49.94% |      238655     12.48%     62.42% |      239185     12.51%     74.93% |      239689     12.54%     87.46% |      239695     12.54%    100.00% (Unspecified)
system.caches.L1Cache_Controller.E.Store::total      1911977                       (Unspecified)
system.caches.L1Cache_Controller.E.Inv   |       10904     12.39%     12.39% |       11321     12.86%     25.24% |       11182     12.70%     37.95% |       10986     12.48%     50.42% |       10953     12.44%     62.87% |       10974     12.46%     75.33% |       10814     12.28%     87.61% |       10905     12.39%    100.00% (Unspecified)
system.caches.L1Cache_Controller.E.Inv::total        88039                       (Unspecified)
system.caches.L1Cache_Controller.E.L1_Replacement |      398450     12.46%     12.46% |      396590     12.40%     24.87% |      399725     12.50%     37.37% |      399065     12.48%     49.85% |      399355     12.49%     62.34% |      401237     12.55%     74.89% |      401045     12.54%     87.44% |      401654     12.56%    100.00% (Unspecified)
system.caches.L1Cache_Controller.E.L1_Replacement::total      3197121                       (Unspecified)
system.caches.L1Cache_Controller.E.Fwd_GETX |           0      0.00%      0.00% |          16     66.67%     66.67% |           8     33.33%    100.00% |           0      0.00%    100.00% |           0      0.00%    100.00% |           0      0.00%    100.00% |           0      0.00%    100.00% |           0      0.00%    100.00% (Unspecified)
system.caches.L1Cache_Controller.E.Fwd_GETX::total           24                       (Unspecified)
system.caches.L1Cache_Controller.E.Fwd_GETS |       55920     12.59%     12.59% |       55479     12.50%     25.09% |       55630     12.53%     37.62% |       55695     12.54%     50.16% |       55251     12.44%     62.61% |       54582     12.29%     74.90% |       55730     12.55%     87.45% |       55715     12.55%    100.00% (Unspecified)
system.caches.L1Cache_Controller.E.Fwd_GETS::total       444002                       (Unspecified)
system.caches.L1Cache_Controller.E.Fwd_GET_INSTR |           6    100.00%    100.00% |           0      0.00%    100.00% |           0      0.00%    100.00% |           0      0.00%    100.00% |           0      0.00%    100.00% |           0      0.00%    100.00% |           0      0.00%    100.00% |           0      0.00%    100.00% (Unspecified)
system.caches.L1Cache_Controller.E.Fwd_GET_INSTR::total            6                       (Unspecified)
system.caches.L1Cache_Controller.M.Load  |     1293760     12.53%     12.53% |     1288648     12.48%     25.00% |     1288508     12.48%     37.48% |     1293208     12.52%     50.00% |     1288572     12.48%     62.48% |     1288318     12.47%     74.95% |     1294476     12.53%     87.49% |     1292544     12.51%    100.00% (Unspecified)
system.caches.L1Cache_Controller.M.Load::total     10328034                       (Unspecified)
system.caches.L1Cache_Controller.M.Store |      993918     12.55%     12.55% |      985056     12.44%     24.99% |      986841     12.46%     37.45% |      988933     12.49%     49.94% |      993600     12.55%     62.48% |      988695     12.48%     74.97% |      991634     12.52%     87.49% |      990786     12.51%    100.00% (Unspecified)
system.caches.L1Cache_Controller.M.Store::total      7919463                       (Unspecified)
system.caches.L1Cache_Controller.M.Inv   |        6595     12.47%     12.47% |        7000     13.23%     25.70% |        6570     12.42%     38.12% |        6663     12.60%     50.71% |        6704     12.67%     63.39% |        6560     12.40%     75.79% |        6363     12.03%     87.82% |        6445     12.18%    100.00% (Unspecified)
system.caches.L1Cache_Controller.M.Inv::total        52900                       (Unspecified)
system.caches.L1Cache_Controller.M.L1_Replacement |      236862     12.65%     12.65% |      232218     12.41%     25.06% |      233060     12.45%     37.51% |      233580     12.48%     49.99% |      233668     12.48%     62.47% |      233965     12.50%     74.97% |      234372     12.52%     87.49% |      234092     12.51%    100.00% (Unspecified)
system.caches.L1Cache_Controller.M.L1_Replacement::total      1871817                       (Unspecified)
system.caches.L1Cache_Controller.M.Fwd_GETX |          11      8.80%      8.80% |          21     16.80%     25.60% |          15     12.00%     37.60% |          11      8.80%     46.40% |          23     18.40%     64.80% |          17     13.60%     78.40% |          13     10.40%     88.80% |          14     11.20%    100.00% (Unspecified)
system.caches.L1Cache_Controller.M.Fwd_GETX::total          125                       (Unspecified)
system.caches.L1Cache_Controller.M.Fwd_GETS |        9992     13.09%     13.09% |        9507     12.46%     25.55% |        9439     12.37%     37.92% |        9415     12.34%     50.26% |        9610     12.59%     62.86% |        9205     12.06%     74.92% |        9550     12.52%     87.44% |        9587     12.56%    100.00% (Unspecified)
system.caches.L1Cache_Controller.M.Fwd_GETS::total        76305                       (Unspecified)
system.caches.L1Cache_Controller.IS.Inv  |           0      0.00%      0.00% |          39     21.67%     21.67% |          56     31.11%     52.78% |          67     37.22%     90.00% |          12      6.67%     96.67% |           2      1.11%     97.78% |           2      1.11%     98.89% |           2      1.11%    100.00% (Unspecified)
system.caches.L1Cache_Controller.IS.Inv::total          180                       (Unspecified)
system.caches.L1Cache_Controller.IS.Data_Exclusive |      705077     12.47%     12.47% |      703342     12.44%     24.91% |      706855     12.50%     37.42% |      706653     12.50%     49.91% |      705771     12.48%     62.40% |      707501     12.51%     74.91% |      708768     12.54%     87.45% |      709532     12.55%    100.00% (Unspecified)
system.caches.L1Cache_Controller.IS.Data_Exclusive::total      5653499                       (Unspecified)
system.caches.L1Cache_Controller.IS.DataS_fromL1 |       65143     12.52%     12.52% |       65359     12.56%     25.08% |       64962     12.48%     37.57% |       64677     12.43%     50.00% |       64577     12.41%     62.41% |       65748     12.64%     75.04% |       64989     12.49%     87.53% |       64869     12.47%    100.00% (Unspecified)
system.caches.L1Cache_Controller.IS.DataS_fromL1::total       520324                       (Unspecified)
system.caches.L1Cache_Controller.IS.Data_all_Acks |      184108     12.51%     12.51% |      181475     12.33%     24.83% |      184051     12.50%     37.33% |      184496     12.53%     49.87% |      183466     12.46%     62.33% |      185405     12.59%     74.92% |      184976     12.56%     87.49% |      184200     12.51%    100.00% (Unspecified)
system.caches.L1Cache_Controller.IS.Data_all_Acks::total      1472177                       (Unspecified)
system.caches.L1Cache_Controller.IM.Data |          34    100.00%    100.00% |           0      0.00%    100.00% |           0      0.00%    100.00% |           0      0.00%    100.00% |           0      0.00%    100.00% |           0      0.00%    100.00% |           0      0.00%    100.00% |           0      0.00%    100.00% (Unspecified)
system.caches.L1Cache_Controller.IM.Data::total           34                       (Unspecified)
system.caches.L1Cache_Controller.IM.Data_all_Acks |        2390     15.42%     15.42% |        1714     11.06%     26.47% |        1732     11.17%     37.64% |        1728     11.15%     48.79% |        2757     17.78%     66.57% |        1732     11.17%     77.74% |        1723     11.11%     88.85% |        1728     11.15%    100.00% (Unspecified)
system.caches.L1Cache_Controller.IM.Data_all_Acks::total        15504                       (Unspecified)
system.caches.L1Cache_Controller.SM.Inv  |           3      9.09%      9.09% |           1      3.03%     12.12% |           4     12.12%     24.24% |           3      9.09%     33.33% |           7     21.21%     54.55% |           5     15.15%     69.70% |           3      9.09%     78.79% |           7     21.21%    100.00% (Unspecified)
system.caches.L1Cache_Controller.SM.Inv::total           33                       (Unspecified)
system.caches.L1Cache_Controller.SM.Ack  |       10910     13.49%     13.49% |        9860     12.19%     25.68% |        9957     12.31%     38.00% |        9947     12.30%     50.30% |        9914     12.26%     62.56% |       10052     12.43%     74.99% |       10229     12.65%     87.64% |        9998     12.36%    100.00% (Unspecified)
system.caches.L1Cache_Controller.SM.Ack::total        80867                       (Unspecified)
system.caches.L1Cache_Controller.SM.Ack_all |        9942     12.93%     12.93% |        9457     12.30%     25.23% |        9455     12.30%     37.53% |        9503     12.36%     49.90% |        9483     12.34%     62.23% |        9686     12.60%     74.83% |        9763     12.70%     87.53% |        9585     12.47%    100.00% (Unspecified)
system.caches.L1Cache_Controller.SM.Ack_all::total        76874                       (Unspecified)
system.caches.L1Cache_Controller.IS_I.Data_all_Acks |           0      0.00%      0.00% |          39     21.67%     21.67% |          56     31.11%     52.78% |          67     37.22%     90.00% |          12      6.67%     96.67% |           2      1.11%     97.78% |           2      1.11%     98.89% |           2      1.11%    100.00% (Unspecified)
system.caches.L1Cache_Controller.IS_I.Data_all_Acks::total          180                       (Unspecified)
system.caches.L1Cache_Controller.M_I.Load |           0      0.00%      0.00% |           3     60.00%     60.00% |           1     20.00%     80.00% |           0      0.00%     80.00% |           0      0.00%     80.00% |           0      0.00%     80.00% |           0      0.00%     80.00% |           1     20.00%    100.00% (Unspecified)
system.caches.L1Cache_Controller.M_I.Load::total            5                       (Unspecified)
system.caches.L1Cache_Controller.M_I.Inv |           0      0.00%      0.00% |           4     28.57%     28.57% |           3     21.43%     50.00% |           1      7.14%     57.14% |           2     14.29%     71.43% |           1      7.14%     78.57% |           2     14.29%     92.86% |           1      7.14%    100.00% (Unspecified)
system.caches.L1Cache_Controller.M_I.Inv::total           14                       (Unspecified)
system.caches.L1Cache_Controller.M_I.Fwd_GETS |           0      0.00%      0.00% |           2     18.18%     18.18% |           2     18.18%     36.36% |           6     54.55%     90.91% |           0      0.00%     90.91% |           1      9.09%    100.00% |           0      0.00%    100.00% |           0      0.00%    100.00% (Unspecified)
system.caches.L1Cache_Controller.M_I.Fwd_GETS::total           11                       (Unspecified)
system.caches.L1Cache_Controller.M_I.WB_Ack |      635311     12.53%     12.53% |      628802     12.41%     24.94% |      632780     12.48%     37.42% |      632638     12.48%     49.90% |      633021     12.49%     62.39% |      635200     12.53%     74.92% |      635415     12.54%     87.46% |      635745     12.54%    100.00% (Unspecified)
system.caches.L1Cache_Controller.M_I.WB_Ack::total      5068912                       (Unspecified)
system.caches.L1Cache_Controller.SINK_WB_ACK.WB_Ack |           0      0.00%      0.00% |           6     24.00%     24.00% |           5     20.00%     44.00% |           7     28.00%     72.00% |           2      8.00%     80.00% |           2      8.00%     88.00% |           2      8.00%     96.00% |           1      4.00%    100.00% (Unspecified)
system.caches.L1Cache_Controller.SINK_WB_ACK.WB_Ack::total           25                       (Unspecified)
system.caches.Directory_Controller.Fetch |       12958      0.26%      0.26% |     4976762     99.74%    100.00% (Unspecified)
system.caches.Directory_Controller.Fetch::total      4989720                       (Unspecified)
system.caches.Directory_Controller.Data  |         930      0.05%      0.05% |     1837708     99.95%    100.00% (Unspecified)
system.caches.Directory_Controller.Data::total      1838638                       (Unspecified)
system.caches.Directory_Controller.Memory_Data |       12958      0.26%      0.26% |     4976750     99.74%    100.00% (Unspecified)
system.caches.Directory_Controller.Memory_Data::total      4989708                       (Unspecified)
system.caches.Directory_Controller.Memory_Ack |         930      0.05%      0.05% |     1837708     99.95%    100.00% (Unspecified)
system.caches.Directory_Controller.Memory_Ack::total      1838638                       (Unspecified)
system.caches.Directory_Controller.CleanReplacement |       11967      0.38%      0.38% |     3139115     99.62%    100.00% (Unspecified)
system.caches.Directory_Controller.CleanReplacement::total      3151082                       (Unspecified)
system.caches.Directory_Controller.I.Fetch |       12958      0.26%      0.26% |     4976762     99.74%    100.00% (Unspecified)
system.caches.Directory_Controller.I.Fetch::total      4989720                       (Unspecified)
system.caches.Directory_Controller.M.Data |         930      0.05%      0.05% |     1837708     99.95%    100.00% (Unspecified)
system.caches.Directory_Controller.M.Data::total      1838638                       (Unspecified)
system.caches.Directory_Controller.M.CleanReplacement |       11967      0.38%      0.38% |     3139115     99.62%    100.00% (Unspecified)
system.caches.Directory_Controller.M.CleanReplacement::total      3151082                       (Unspecified)
system.caches.Directory_Controller.IM.Memory_Data |       12958      0.26%      0.26% |     4976750     99.74%    100.00% (Unspecified)
system.caches.Directory_Controller.IM.Memory_Data::total      4989708                       (Unspecified)
system.caches.Directory_Controller.MI.Memory_Ack |         930      0.05%      0.05% |     1837708     99.95%    100.00% (Unspecified)
system.caches.Directory_Controller.MI.Memory_Ack::total      1838638                       (Unspecified)
system.caches.L2Cache_Controller.L1_GET_INSTR |       10167     13.82%     13.82% |       10363     14.09%     27.91% |        9659     13.13%     41.05% |        6702      9.11%     50.16% |        9073     12.34%     62.49% |        8853     12.04%     74.53% |        8848     12.03%     86.56% |        9885     13.44%    100.00% (Unspecified)
system.caches.L2Cache_Controller.L1_GET_INSTR::total        73550                       (Unspecified)
system.caches.L2Cache_Controller.L1_GETS |      946468     12.50%     12.50% |      957115     12.64%     25.13% |      950019     12.54%     37.67% |      948710     12.52%     50.20% |      937197     12.37%     62.57% |      940656     12.42%     74.99% |      956775     12.63%     87.62% |      937769     12.38%    100.00% (Unspecified)
system.caches.L2Cache_Controller.L1_GETS::total      7574709                       (Unspecified)
system.caches.L2Cache_Controller.L1_GETX |        2317     14.86%     14.86% |        1724     11.06%     25.92% |        1044      6.70%     32.61% |        1384      8.88%     41.49% |        1382      8.86%     50.35% |        3006     19.28%     69.63% |        2081     13.35%     82.97% |        2655     17.03%    100.00% (Unspecified)
system.caches.L2Cache_Controller.L1_GETX::total        15593                       (Unspecified)
system.caches.L2Cache_Controller.L1_UPGRADE |        9905     12.87%     12.87% |        9257     12.03%     24.90% |        9507     12.35%     37.25% |        9591     12.46%     49.71% |        9504     12.35%     62.06% |        9573     12.44%     74.50% |        9756     12.68%     87.18% |        9870     12.82%    100.00% (Unspecified)
system.caches.L2Cache_Controller.L1_UPGRADE::total        76963                       (Unspecified)
system.caches.L2Cache_Controller.L1_PUTX |      636311     12.55%     12.55% |      631107     12.45%     25.00% |      633611     12.50%     37.50% |      635943     12.55%     50.05% |      630018     12.43%     62.48% |      633677     12.50%     74.98% |      635354     12.53%     87.51% |      632913     12.49%    100.00% (Unspecified)
system.caches.L2Cache_Controller.L1_PUTX::total      5068934                       (Unspecified)
system.caches.L2Cache_Controller.L1_PUTX_old |           2      7.41%      7.41% |           5     18.52%     25.93% |           4     14.81%     40.74% |           4     14.81%     55.56% |           4     14.81%     70.37% |           4     14.81%     85.19% |           2      7.41%     92.59% |           2      7.41%    100.00% (Unspecified)
system.caches.L2Cache_Controller.L1_PUTX_old::total           27                       (Unspecified)
system.caches.L2Cache_Controller.L2_Replacement |      224648     12.55%     12.55% |      222723     12.44%     24.99% |      223294     12.47%     37.46% |      224658     12.55%     50.01% |      221601     12.38%     62.38% |      225390     12.59%     74.97% |      223363     12.48%     87.45% |      224710     12.55%    100.00% (Unspecified)
system.caches.L2Cache_Controller.L2_Replacement::total      1790387                       (Unspecified)
system.caches.L2Cache_Controller.L2_Replacement_clean |      402236     12.57%     12.57% |      399218     12.48%     25.05% |      399253     12.48%     37.53% |      400294     12.51%     50.04% |      398947     12.47%     62.51% |      399679     12.49%     75.00% |      399585     12.49%     87.49% |      400121     12.51%    100.00% (Unspecified)
system.caches.L2Cache_Controller.L2_Replacement_clean::total      3199333                       (Unspecified)
system.caches.L2Cache_Controller.Mem_Data |      626882     12.56%     12.56% |      621940     12.46%     25.03% |      622546     12.48%     37.50% |      624952     12.52%     50.03% |      620543     12.44%     62.47% |      625069     12.53%     74.99% |      622946     12.48%     87.48% |      624829     12.52%    100.00% (Unspecified)
system.caches.L2Cache_Controller.Mem_Data::total      4989707                       (Unspecified)
system.caches.L2Cache_Controller.Mem_Ack |      626884     12.56%     12.56% |      621941     12.46%     25.03% |      622547     12.48%     37.50% |      624952     12.52%     50.03% |      620548     12.44%     62.47% |      625069     12.53%     74.99% |      622948     12.48%     87.48% |      624831     12.52%    100.00% (Unspecified)
system.caches.L2Cache_Controller.Mem_Ack::total      4989720                       (Unspecified)
system.caches.L2Cache_Controller.WB_Data |       16661     12.89%     12.89% |       15496     11.99%     24.89% |       15540     12.03%     36.91% |       16014     12.39%     49.31% |       15909     12.31%     61.62% |       16184     12.53%     74.14% |       16123     12.48%     86.62% |       17285     13.38%    100.00% (Unspecified)
system.caches.L2Cache_Controller.WB_Data::total       129212                       (Unspecified)
system.caches.L2Cache_Controller.WB_Data_clean |       55049     12.40%     12.40% |       55335     12.46%     24.86% |       55642     12.53%     37.39% |       55914     12.59%     49.98% |       55493     12.50%     62.48% |       56209     12.66%     75.14% |       54857     12.35%     87.49% |       55527     12.51%    100.00% (Unspecified)
system.caches.L2Cache_Controller.WB_Data_clean::total       444026                       (Unspecified)
system.caches.L2Cache_Controller.Ack     |      122144     12.51%     12.51% |      124367     12.74%     25.25% |      124339     12.73%     37.98% |      119644     12.25%     50.24% |      120570     12.35%     62.59% |      121554     12.45%     75.03% |      121246     12.42%     87.45% |      122505     12.55%    100.00% (Unspecified)
system.caches.L2Cache_Controller.Ack::total       976369                       (Unspecified)
system.caches.L2Cache_Controller.Ack_all |       67324     12.55%     12.55% |       66821     12.45%     25.00% |       66909     12.47%     37.47% |       67023     12.49%     49.96% |       67333     12.55%     62.51% |       67535     12.59%     75.09% |       66004     12.30%     87.39% |       67645     12.61%    100.00% (Unspecified)
system.caches.L2Cache_Controller.Ack_all::total       536594                       (Unspecified)
system.caches.L2Cache_Controller.Unblock |       64982     12.49%     12.49% |       64480     12.39%     24.88% |       65027     12.50%     37.38% |       65446     12.58%     49.96% |       64907     12.47%     62.43% |       65698     12.63%     75.06% |       64446     12.39%     87.44% |       65338     12.56%    100.00% (Unspecified)
system.caches.L2Cache_Controller.Unblock::total       520324                       (Unspecified)
system.caches.L2Cache_Controller.Exclusive_Unblock |      721404     12.56%     12.56% |      714670     12.44%     24.99% |      717320     12.48%     37.48% |      720680     12.54%     50.02% |      714752     12.44%     62.46% |      719070     12.51%     74.97% |      718996     12.51%     87.49% |      718985     12.51%    100.00% (Unspecified)
system.caches.L2Cache_Controller.Exclusive_Unblock::total      5745877                       (Unspecified)
system.caches.L2Cache_Controller.NP.L1_GET_INSTR |        1464     13.76%     13.76% |        1540     14.48%     28.24% |        1369     12.87%     41.12% |        1009      9.49%     50.60% |        1336     12.56%     63.16% |        1199     11.27%     74.44% |        1235     11.61%     86.05% |        1484     13.95%    100.00% (Unspecified)
system.caches.L2Cache_Controller.NP.L1_GET_INSTR::total        10636                       (Unspecified)
system.caches.L2Cache_Controller.NP.L1_GETS |      623163     12.55%     12.55% |      618708     12.46%     25.02% |      620166     12.49%     37.51% |      622581     12.54%     50.05% |      617868     12.45%     62.50% |      620959     12.51%     75.01% |      619762     12.48%     87.49% |      620937     12.51%    100.00% (Unspecified)
system.caches.L2Cache_Controller.NP.L1_GETS::total      4964144                       (Unspecified)
system.caches.L2Cache_Controller.NP.L1_GETX |        2257     15.11%     15.11% |        1693     11.33%     26.44% |        1012      6.77%     33.21% |        1362      9.12%     42.33% |        1344      9.00%     51.33% |        2911     19.48%     70.81% |        1951     13.06%     83.87% |        2410     16.13%    100.00% (Unspecified)
system.caches.L2Cache_Controller.NP.L1_GETX::total        14940                       (Unspecified)
system.caches.L2Cache_Controller.NP.L1_PUTX_old |           1      7.69%      7.69% |           2     15.38%     23.08% |           2     15.38%     38.46% |           2     15.38%     53.85% |           2     15.38%     69.23% |           2     15.38%     84.62% |           1      7.69%     92.31% |           1      7.69%    100.00% (Unspecified)
system.caches.L2Cache_Controller.NP.L1_PUTX_old::total           13                       (Unspecified)
system.caches.L2Cache_Controller.SS.L1_GET_INSTR |        5057     12.52%     12.52% |        5177     12.81%     25.33% |        5346     13.23%     38.56% |        3390      8.39%     46.95% |        5147     12.74%     59.69% |        4816     11.92%     71.61% |        5279     13.06%     84.67% |        6194     15.33%    100.00% (Unspecified)
system.caches.L2Cache_Controller.SS.L1_GET_INSTR::total        40406                       (Unspecified)
system.caches.L2Cache_Controller.SS.L1_GETS |      170841     12.30%     12.30% |      187856     13.52%     25.82% |      176505     12.71%     38.53% |      172074     12.39%     50.91% |      167707     12.07%     62.99% |      167614     12.07%     75.05% |      182163     13.11%     88.16% |      164413     11.84%    100.00% (Unspecified)
system.caches.L2Cache_Controller.SS.L1_GETS::total      1389173                       (Unspecified)
system.caches.L2Cache_Controller.SS.L1_GETX |          17     50.00%     50.00% |           0      0.00%     50.00% |           0      0.00%     50.00% |           0      0.00%     50.00% |           0      0.00%     50.00% |           0      0.00%     50.00% |          17     50.00%    100.00% |           0      0.00%    100.00% (Unspecified)
system.caches.L2Cache_Controller.SS.L1_GETX::total           34                       (Unspecified)
system.caches.L2Cache_Controller.SS.L1_UPGRADE |        9899     12.88%     12.88% |        9252     12.04%     24.92% |        9502     12.37%     37.29% |        9591     12.48%     49.77% |        9500     12.36%     62.13% |        9566     12.45%     74.58% |        9664     12.58%     87.16% |        9866     12.84%    100.00% (Unspecified)
system.caches.L2Cache_Controller.SS.L1_UPGRADE::total        76840                       (Unspecified)
system.caches.L2Cache_Controller.SS.L1_PUTX |           1      9.09%      9.09% |           3     27.27%     36.36% |           3     27.27%     63.64% |           0      0.00%     63.64% |           1      9.09%     72.73% |           0      0.00%     72.73% |           1      9.09%     81.82% |           2     18.18%    100.00% (Unspecified)
system.caches.L2Cache_Controller.SS.L1_PUTX::total           11                       (Unspecified)
system.caches.L2Cache_Controller.SS.L2_Replacement |         558     14.26%     14.26% |         505     12.91%     27.17% |         454     11.60%     38.77% |         524     13.39%     52.16% |         462     11.81%     63.97% |         466     11.91%     75.88% |         482     12.32%     88.19% |         462     11.81%    100.00% (Unspecified)
system.caches.L2Cache_Controller.SS.L2_Replacement::total         3913                       (Unspecified)
system.caches.L2Cache_Controller.SS.L2_Replacement_clean |       55321     12.44%     12.44% |       55519     12.49%     24.93% |       55946     12.58%     37.51% |       55616     12.51%     50.02% |       55520     12.49%     62.50% |       56027     12.60%     75.11% |       54735     12.31%     87.42% |       55958     12.58%    100.00% (Unspecified)
system.caches.L2Cache_Controller.SS.L2_Replacement_clean::total       444642                       (Unspecified)
system.caches.L2Cache_Controller.M.L1_GET_INSTR |           4     10.26%     10.26% |           8     20.51%     30.77% |           3      7.69%     38.46% |           3      7.69%     46.15% |           6     15.38%     61.54% |           6     15.38%     76.92% |           3      7.69%     84.62% |           6     15.38%    100.00% (Unspecified)
system.caches.L2Cache_Controller.M.L1_GET_INSTR::total           39                       (Unspecified)
system.caches.L2Cache_Controller.M.L1_GETS |       86422     12.49%     12.49% |       85285     12.32%     24.81% |       87058     12.58%     37.39% |       87431     12.63%     50.02% |       86261     12.46%     62.49% |       85763     12.39%     74.88% |       87782     12.68%     87.57% |       86051     12.43%    100.00% (Unspecified)
system.caches.L2Cache_Controller.M.L1_GETS::total       692053                       (Unspecified)
system.caches.L2Cache_Controller.M.L1_GETX |          23      5.54%      5.54% |          25      6.02%     11.57% |          26      6.27%     17.83% |          21      5.06%     22.89% |          32      7.71%     30.60% |          85     20.48%     51.08% |          91     21.93%     73.01% |         112     26.99%    100.00% (Unspecified)
system.caches.L2Cache_Controller.M.L1_GETX::total          415                       (Unspecified)
system.caches.L2Cache_Controller.M.L2_Replacement |      223443     12.54%     12.54% |      221664     12.44%     24.98% |      222267     12.48%     37.46% |      223498     12.54%     50.00% |      220542     12.38%     62.38% |      224305     12.59%     74.97% |      222306     12.48%     87.45% |      223607     12.55%    100.00% (Unspecified)
system.caches.L2Cache_Controller.M.L2_Replacement::total      1781632                       (Unspecified)
system.caches.L2Cache_Controller.M.L2_Replacement_clean |      329389     12.58%     12.58% |      327105     12.49%     25.07% |      327216     12.50%     37.57% |      327949     12.52%     50.09% |      326178     12.46%     62.55% |      326534     12.47%     75.02% |      328104     12.53%     87.55% |      326105     12.45%    100.00% (Unspecified)
system.caches.L2Cache_Controller.M.L2_Replacement_clean::total      2618580                       (Unspecified)
system.caches.L2Cache_Controller.MT.L1_GET_INSTR |           2     33.33%     33.33% |           0      0.00%     33.33% |           1     16.67%     50.00% |           2     33.33%     83.33% |           0      0.00%     83.33% |           0      0.00%     83.33% |           1     16.67%    100.00% |           0      0.00%    100.00% (Unspecified)
system.caches.L2Cache_Controller.MT.L1_GET_INSTR::total            6                       (Unspecified)
system.caches.L2Cache_Controller.MT.L1_GETS |       64980     12.49%     12.49% |       64480     12.39%     24.88% |       65026     12.50%     37.38% |       65444     12.58%     49.96% |       64907     12.47%     62.43% |       65698     12.63%     75.06% |       64445     12.39%     87.44% |       65338     12.56%    100.00% (Unspecified)
system.caches.L2Cache_Controller.MT.L1_GETS::total       520318                       (Unspecified)
system.caches.L2Cache_Controller.MT.L1_GETX |          19     12.75%     12.75% |           6      4.03%     16.78% |           6      4.03%     20.81% |           1      0.67%     21.48% |           4      2.68%     24.16% |           7      4.70%     28.86% |          14      9.40%     38.26% |          92     61.74%    100.00% (Unspecified)
system.caches.L2Cache_Controller.MT.L1_GETX::total          149                       (Unspecified)
system.caches.L2Cache_Controller.MT.L1_PUTX |      636309     12.55%     12.55% |      631101     12.45%     25.00% |      633605     12.50%     37.50% |      635943     12.55%     50.05% |      630016     12.43%     62.48% |      633677     12.50%     74.98% |      635352     12.53%     87.51% |      632909     12.49%    100.00% (Unspecified)
system.caches.L2Cache_Controller.MT.L1_PUTX::total      5068912                       (Unspecified)
system.caches.L2Cache_Controller.MT.L2_Replacement |         647     13.36%     13.36% |         554     11.44%     24.80% |         573     11.83%     36.64% |         636     13.14%     49.77% |         597     12.33%     62.10% |         619     12.78%     74.89% |         575     11.88%     86.76% |         641     13.24%    100.00% (Unspecified)
system.caches.L2Cache_Controller.MT.L2_Replacement::total         4842                       (Unspecified)
system.caches.L2Cache_Controller.MT.L2_Replacement_clean |       17526     12.88%     12.88% |       16594     12.19%     25.07% |       16091     11.82%     36.89% |       16729     12.29%     49.18% |       17249     12.67%     61.85% |       17118     12.58%     74.43% |       16746     12.30%     86.73% |       18058     13.27%    100.00% (Unspecified)
system.caches.L2Cache_Controller.MT.L2_Replacement_clean::total       136111                       (Unspecified)
system.caches.L2Cache_Controller.M_I.L1_GET_INSTR |         142     47.18%     47.18% |          40     13.29%     60.47% |          69     22.92%     83.39% |          49     16.28%     99.67% |           0      0.00%     99.67% |           0      0.00%     99.67% |           0      0.00%     99.67% |           1      0.33%    100.00% (Unspecified)
system.caches.L2Cache_Controller.M_I.L1_GET_INSTR::total          301                       (Unspecified)
system.caches.L2Cache_Controller.M_I.L1_GETS |           8      2.69%      2.69% |           3      1.01%      3.70% |          36     12.12%     15.82% |          59     19.87%     35.69% |           4      1.35%     37.04% |           3      1.01%     38.05% |          50     16.84%     54.88% |         134     45.12%    100.00% (Unspecified)
system.caches.L2Cache_Controller.M_I.L1_GETS::total          297                       (Unspecified)
system.caches.L2Cache_Controller.M_I.L1_GETX |           1      1.96%      1.96% |           0      0.00%      1.96% |           0      0.00%      1.96% |           0      0.00%      1.96% |           2      3.92%      5.88% |           3      5.88%     11.76% |           4      7.84%     19.61% |          41     80.39%    100.00% (Unspecified)
system.caches.L2Cache_Controller.M_I.L1_GETX::total           51                       (Unspecified)
system.caches.L2Cache_Controller.M_I.L1_PUTX_old |           0      0.00%      0.00% |           1    100.00%    100.00% |           0      0.00%    100.00% |           0      0.00%    100.00% |           0      0.00%    100.00% |           0      0.00%    100.00% |           0      0.00%    100.00% |           0      0.00%    100.00% (Unspecified)
system.caches.L2Cache_Controller.M_I.L1_PUTX_old::total            1                       (Unspecified)
system.caches.L2Cache_Controller.M_I.Mem_Ack |      626884     12.56%     12.56% |      621941     12.46%     25.03% |      622547     12.48%     37.50% |      624952     12.52%     50.03% |      620548     12.44%     62.47% |      625069     12.53%     74.99% |      622948     12.48%     87.48% |      624831     12.52%    100.00% (Unspecified)
system.caches.L2Cache_Controller.M_I.Mem_Ack::total      4989720                       (Unspecified)
system.caches.L2Cache_Controller.MT_I.L1_PUTX_old |           0      0.00%      0.00% |           0      0.00%      0.00% |           0      0.00%      0.00% |           0      0.00%      0.00% |           1    100.00%    100.00% |           0      0.00%    100.00% |           0      0.00%    100.00% |           0      0.00%    100.00% (Unspecified)
system.caches.L2Cache_Controller.MT_I.L1_PUTX_old::total            1                       (Unspecified)
system.caches.L2Cache_Controller.MT_I.WB_Data |         625     13.43%     13.43% |         535     11.49%     24.92% |         551     11.84%     36.76% |         606     13.02%     49.77% |         569     12.22%     62.00% |         595     12.78%     74.78% |         547     11.75%     86.53% |         627     13.47%    100.00% (Unspecified)
system.caches.L2Cache_Controller.MT_I.WB_Data::total         4655                       (Unspecified)
system.caches.L2Cache_Controller.MT_I.Ack_all |          22     11.76%     11.76% |          19     10.16%     21.93% |          22     11.76%     33.69% |          30     16.04%     49.73% |          28     14.97%     64.71% |          24     12.83%     77.54% |          28     14.97%     92.51% |          14      7.49%    100.00% (Unspecified)
system.caches.L2Cache_Controller.MT_I.Ack_all::total          187                       (Unspecified)
system.caches.L2Cache_Controller.MCT_I.L1_PUTX_old |           1      8.33%      8.33% |           2     16.67%     25.00% |           2     16.67%     41.67% |           2     16.67%     58.33% |           1      8.33%     66.67% |           2     16.67%     83.33% |           1      8.33%     91.67% |           1      8.33%    100.00% (Unspecified)
system.caches.L2Cache_Controller.MCT_I.L1_PUTX_old::total           12                       (Unspecified)
system.caches.L2Cache_Controller.MCT_I.WB_Data |        6103     12.65%     12.65% |        5815     12.05%     24.70% |        5602     11.61%     36.31% |        5874     12.17%     48.48% |        5926     12.28%     60.77% |        6099     12.64%     73.41% |        5986     12.41%     85.81% |        6846     14.19%    100.00% (Unspecified)
system.caches.L2Cache_Controller.MCT_I.WB_Data::total        48251                       (Unspecified)
system.caches.L2Cache_Controller.MCT_I.WB_Data_clean |           0      0.00%      0.00% |           1     12.50%     12.50% |           2     25.00%     37.50% |           2     25.00%     62.50% |           0      0.00%     62.50% |           1     12.50%     75.00% |           1     12.50%     87.50% |           1     12.50%    100.00% (Unspecified)
system.caches.L2Cache_Controller.MCT_I.WB_Data_clean::total            8                       (Unspecified)
system.caches.L2Cache_Controller.MCT_I.Ack_all |       11423     13.00%     13.00% |       10778     12.27%     25.27% |       10487     11.94%     37.21% |       10853     12.35%     49.56% |       11323     12.89%     62.45% |       11018     12.54%     74.99% |       10759     12.25%     87.24% |       11211     12.76%    100.00% (Unspecified)
system.caches.L2Cache_Controller.MCT_I.Ack_all::total        87852                       (Unspecified)
system.caches.L2Cache_Controller.I_I.L1_GET_INSTR |           3    100.00%    100.00% |           0      0.00%    100.00% |           0      0.00%    100.00% |           0      0.00%    100.00% |           0      0.00%    100.00% |           0      0.00%    100.00% |           0      0.00%    100.00% |           0      0.00%    100.00% (Unspecified)
system.caches.L2Cache_Controller.I_I.L1_GET_INSTR::total            3                       (Unspecified)
system.caches.L2Cache_Controller.I_I.L1_GETS |           0      0.00%      0.00% |           0      0.00%      0.00% |           1    100.00%    100.00% |           0      0.00%    100.00% |           0      0.00%    100.00% |           0      0.00%    100.00% |           0      0.00%    100.00% |           0      0.00%    100.00% (Unspecified)
system.caches.L2Cache_Controller.I_I.L1_GETS::total            1                       (Unspecified)
system.caches.L2Cache_Controller.I_I.Ack |      120594     12.46%     12.46% |      123140     12.72%     25.18% |      123499     12.76%     37.94% |      118649     12.26%     50.20% |      119727     12.37%     62.56% |      120700     12.47%     75.03% |      120040     12.40%     87.43% |      121635     12.57%    100.00% (Unspecified)
system.caches.L2Cache_Controller.I_I.Ack::total       967984                       (Unspecified)
system.caches.L2Cache_Controller.I_I.Ack_all |       55321     12.44%     12.44% |       55519     12.49%     24.93% |       55946     12.58%     37.51% |       55616     12.51%     50.02% |       55520     12.49%     62.50% |       56027     12.60%     75.11% |       54735     12.31%     87.42% |       55958     12.58%    100.00% (Unspecified)
system.caches.L2Cache_Controller.I_I.Ack_all::total       444642                       (Unspecified)
system.caches.L2Cache_Controller.S_I.Ack |        1550     18.49%     18.49% |        1227     14.63%     33.12% |         840     10.02%     43.14% |         995     11.87%     55.00% |         843     10.05%     65.06% |         854     10.18%     75.24% |        1206     14.38%     89.62% |         870     10.38%    100.00% (Unspecified)
system.caches.L2Cache_Controller.S_I.Ack::total         8385                       (Unspecified)
system.caches.L2Cache_Controller.S_I.Ack_all |         558     14.26%     14.26% |         505     12.91%     27.17% |         454     11.60%     38.77% |         524     13.39%     52.16% |         462     11.81%     63.97% |         466     11.91%     75.88% |         482     12.32%     88.19% |         462     11.81%    100.00% (Unspecified)
system.caches.L2Cache_Controller.S_I.Ack_all::total         3913                       (Unspecified)
system.caches.L2Cache_Controller.ISS.L1_GETS |         394     14.67%     14.67% |         298     11.10%     25.77% |         449     16.72%     42.50% |         307     11.43%     53.93% |         252      9.39%     63.31% |         221      8.23%     71.55% |         283     10.54%     82.09% |         481     17.91%    100.00% (Unspecified)
system.caches.L2Cache_Controller.ISS.L1_GETS::total         2685                       (Unspecified)
system.caches.L2Cache_Controller.ISS.L1_GETX |           0      0.00%      0.00% |           0      0.00%      0.00% |           0      0.00%      0.00% |           0      0.00%      0.00% |           0      0.00%      0.00% |           0      0.00%      0.00% |           2    100.00%    100.00% |           0      0.00%    100.00% (Unspecified)
system.caches.L2Cache_Controller.ISS.L1_GETX::total            2                       (Unspecified)
system.caches.L2Cache_Controller.ISS.Mem_Data |      622767     12.55%     12.55% |      618409     12.46%     25.02% |      619716     12.49%     37.51% |      622274     12.54%     50.05% |      617611     12.45%     62.50% |      620738     12.51%     75.01% |      619477     12.49%     87.49% |      620454     12.51%    100.00% (Unspecified)
system.caches.L2Cache_Controller.ISS.Mem_Data::total      4961446                       (Unspecified)
system.caches.L2Cache_Controller.IS.L1_GET_INSTR |        3491     15.76%     15.76% |        3598     16.24%     32.00% |        2871     12.96%     44.96% |        2248     10.15%     55.11% |        2584     11.66%     66.77% |        2832     12.78%     79.56% |        2329     10.51%     90.07% |        2200      9.93%    100.00% (Unspecified)
system.caches.L2Cache_Controller.IS.L1_GET_INSTR::total        22153                       (Unspecified)
system.caches.L2Cache_Controller.IS.L1_GETS |         544     11.88%     11.88% |         380      8.30%     20.17% |         755     16.48%     36.66% |         814     17.77%     54.43% |         196      4.28%     58.71% |         394      8.60%     67.31% |        1086     23.71%     91.03% |         411      8.97%    100.00% (Unspecified)
system.caches.L2Cache_Controller.IS.L1_GETS::total         4580                       (Unspecified)
system.caches.L2Cache_Controller.IS.Mem_Data |        1858     13.95%     13.95% |        1838     13.80%     27.75% |        1818     13.65%     41.39% |        1316      9.88%     51.27% |        1588     11.92%     63.19% |        1420     10.66%     73.85% |        1518     11.40%     85.25% |        1965     14.75%    100.00% (Unspecified)
system.caches.L2Cache_Controller.IS.Mem_Data::total        13321                       (Unspecified)
system.caches.L2Cache_Controller.IM.Mem_Data |        2257     15.11%     15.11% |        1693     11.33%     26.44% |        1012      6.77%     33.21% |        1362      9.12%     42.33% |        1344      9.00%     51.33% |        2911     19.48%     70.81% |        1951     13.06%     83.87% |        2410     16.13%    100.00% (Unspecified)
system.caches.L2Cache_Controller.IM.Mem_Data::total        14940                       (Unspecified)
system.caches.L2Cache_Controller.SS_MB.L1_GETS |           0      0.00%      0.00% |           0      0.00%      0.00% |           0      0.00%      0.00% |           0      0.00%      0.00% |           0      0.00%      0.00% |           0      0.00%      0.00% |         601    100.00%    100.00% |           0      0.00%    100.00% (Unspecified)
system.caches.L2Cache_Controller.SS_MB.L1_GETS::total          601                       (Unspecified)
system.caches.L2Cache_Controller.SS_MB.L1_UPGRADE |           6     18.18%     18.18% |           5     15.15%     33.33% |           5     15.15%     48.48% |           0      0.00%     48.48% |           4     12.12%     60.61% |           7     21.21%     81.82% |           2      6.06%     87.88% |           4     12.12%    100.00% (Unspecified)
system.caches.L2Cache_Controller.SS_MB.L1_UPGRADE::total           33                       (Unspecified)
system.caches.L2Cache_Controller.SS_MB.Exclusive_Unblock |        9916     12.90%     12.90% |        9252     12.04%     24.93% |        9502     12.36%     37.29% |        9591     12.48%     49.77% |        9500     12.36%     62.13% |        9566     12.44%     74.57% |        9681     12.59%     87.17% |        9866     12.83%    100.00% (Unspecified)
system.caches.L2Cache_Controller.SS_MB.Exclusive_Unblock::total        76874                       (Unspecified)
system.caches.L2Cache_Controller.MT_MB.L1_GETS |          12     48.00%     48.00% |           3     12.00%     60.00% |           1      4.00%     64.00% |           0      0.00%     64.00% |           1      4.00%     68.00% |           2      8.00%     76.00% |           3     12.00%     88.00% |           3     12.00%    100.00% (Unspecified)
system.caches.L2Cache_Controller.MT_MB.L1_GETS::total           25                       (Unspecified)
system.caches.L2Cache_Controller.MT_MB.Exclusive_Unblock |      711488     12.55%     12.55% |      705418     12.44%     24.99% |      707818     12.49%     37.48% |      711089     12.54%     50.02% |      705252     12.44%     62.46% |      709504     12.52%     74.98% |      709315     12.51%     87.49% |      709119     12.51%    100.00% (Unspecified)
system.caches.L2Cache_Controller.MT_MB.Exclusive_Unblock::total      5669003                       (Unspecified)
system.caches.L2Cache_Controller.MT_IIB.L1_GET_INSTR |           4     66.67%     66.67% |           0      0.00%     66.67% |           0      0.00%     66.67% |           1     16.67%     83.33% |           0      0.00%     83.33% |           0      0.00%     83.33% |           1     16.67%    100.00% |           0      0.00%    100.00% (Unspecified)
system.caches.L2Cache_Controller.MT_IIB.L1_GET_INSTR::total            6                       (Unspecified)
system.caches.L2Cache_Controller.MT_IIB.L1_GETS |          85     10.84%     10.84% |          82     10.46%     21.30% |          22      2.81%     24.11% |           0      0.00%     24.11% |           1      0.13%     24.23% |           2      0.26%     24.49% |         591     75.38%     99.87% |           1      0.13%    100.00% (Unspecified)
system.caches.L2Cache_Controller.MT_IIB.L1_GETS::total          784                       (Unspecified)
system.caches.L2Cache_Controller.MT_IIB.L1_GETX |           0      0.00%      0.00% |           0      0.00%      0.00% |           0      0.00%      0.00% |           0      0.00%      0.00% |           0      0.00%      0.00% |           0      0.00%      0.00% |           1    100.00%    100.00% |           0      0.00%    100.00% (Unspecified)
system.caches.L2Cache_Controller.MT_IIB.L1_GETX::total            1                       (Unspecified)
system.caches.L2Cache_Controller.MT_IIB.L1_PUTX |           1      9.09%      9.09% |           3     27.27%     36.36% |           3     27.27%     63.64% |           0      0.00%     63.64% |           1      9.09%     72.73% |           0      0.00%     72.73% |           1      9.09%     81.82% |           2     18.18%    100.00% (Unspecified)
system.caches.L2Cache_Controller.MT_IIB.L1_PUTX::total           11                       (Unspecified)
system.caches.L2Cache_Controller.MT_IIB.WB_Data |        9933     13.02%     13.02% |        9146     11.99%     25.00% |        9387     12.30%     37.31% |        9534     12.50%     49.80% |        9414     12.34%     62.14% |        9489     12.44%     74.58% |        9589     12.57%     87.14% |        9810     12.86%    100.00% (Unspecified)
system.caches.L2Cache_Controller.MT_IIB.WB_Data::total        76302                       (Unspecified)
system.caches.L2Cache_Controller.MT_IIB.WB_Data_clean |       55039     12.40%     12.40% |       55327     12.46%     24.86% |       55634     12.53%     37.39% |       55908     12.59%     49.98% |       55492     12.50%     62.48% |       56204     12.66%     75.14% |       54849     12.35%     87.49% |       55523     12.51%    100.00% (Unspecified)
system.caches.L2Cache_Controller.MT_IIB.WB_Data_clean::total       443976                       (Unspecified)
system.caches.L2Cache_Controller.MT_IIB.Unblock |          10     21.74%     21.74% |           7     15.22%     36.96% |           6     13.04%     50.00% |           4      8.70%     58.70% |           1      2.17%     60.87% |           5     10.87%     71.74% |           8     17.39%     89.13% |           5     10.87%    100.00% (Unspecified)
system.caches.L2Cache_Controller.MT_IIB.Unblock::total           46                       (Unspecified)
system.caches.L2Cache_Controller.MT_IB.WB_Data |           0      0.00%      0.00% |           0      0.00%      0.00% |           0      0.00%      0.00% |           0      0.00%      0.00% |           0      0.00%      0.00% |           1     25.00%     25.00% |           1     25.00%     50.00% |           2     50.00%    100.00% (Unspecified)
system.caches.L2Cache_Controller.MT_IB.WB_Data::total            4                       (Unspecified)
system.caches.L2Cache_Controller.MT_IB.WB_Data_clean |          10     23.81%     23.81% |           7     16.67%     40.48% |           6     14.29%     54.76% |           4      9.52%     64.29% |           1      2.38%     66.67% |           4      9.52%     76.19% |           7     16.67%     92.86% |           3      7.14%    100.00% (Unspecified)
system.caches.L2Cache_Controller.MT_IB.WB_Data_clean::total           42                       (Unspecified)
system.caches.L2Cache_Controller.MT_SB.L1_GETS |          19     39.58%     39.58% |          20     41.67%     81.25% |           0      0.00%     81.25% |           0      0.00%     81.25% |           0      0.00%     81.25% |           0      0.00%     81.25% |           9     18.75%    100.00% |           0      0.00%    100.00% (Unspecified)
system.caches.L2Cache_Controller.MT_SB.L1_GETS::total           48                       (Unspecified)
system.caches.L2Cache_Controller.MT_SB.L1_GETX |           0      0.00%      0.00% |           0      0.00%      0.00% |           0      0.00%      0.00% |           0      0.00%      0.00% |           0      0.00%      0.00% |           0      0.00%      0.00% |           1    100.00%    100.00% |           0      0.00%    100.00% (Unspecified)
system.caches.L2Cache_Controller.MT_SB.L1_GETX::total            1                       (Unspecified)
system.caches.L2Cache_Controller.MT_SB.L1_UPGRADE |           0      0.00%      0.00% |           0      0.00%      0.00% |           0      0.00%      0.00% |           0      0.00%      0.00% |           0      0.00%      0.00% |           0      0.00%      0.00% |          90    100.00%    100.00% |           0      0.00%    100.00% (Unspecified)
system.caches.L2Cache_Controller.MT_SB.L1_UPGRADE::total           90                       (Unspecified)
system.caches.L2Cache_Controller.MT_SB.Unblock |       64972     12.49%     12.49% |       64473     12.39%     24.88% |       65021     12.50%     37.38% |       65442     12.58%     49.96% |       64906     12.48%     62.43% |       65693     12.63%     75.06% |       64438     12.39%     87.44% |       65333     12.56%    100.00% (Unspecified)
system.caches.L2Cache_Controller.MT_SB.Unblock::total       520278                       (Unspecified)
system.caches.RequestType.LD.latency_hist_seqr::bucket_size          512                       (Unspecified)
system.caches.RequestType.LD.latency_hist_seqr::max_bucket         5119                       (Unspecified)
system.caches.RequestType.LD.latency_hist_seqr::samples     61079387                       (Unspecified)
system.caches.RequestType.LD.latency_hist_seqr::mean    42.893444                       (Unspecified)
system.caches.RequestType.LD.latency_hist_seqr::gmean     1.857294                       (Unspecified)
system.caches.RequestType.LD.latency_hist_seqr::stdev   157.039965                       (Unspecified)
system.caches.RequestType.LD.latency_hist_seqr |    59422775     97.29%     97.29% |     1571021      2.57%     99.86% |        8338      0.01%     99.87% |       16275      0.03%     99.90% |       51540      0.08%     99.98% |        9319      0.02%    100.00% |          90      0.00%    100.00% |          28      0.00%    100.00% |           1      0.00%    100.00% |           0      0.00%    100.00% (Unspecified)
system.caches.RequestType.LD.latency_hist_seqr::total     61079387                       (Unspecified)
system.caches.RequestType.LD.hit_latency_hist_seqr::bucket_size            1                       (Unspecified)
system.caches.RequestType.LD.hit_latency_hist_seqr::max_bucket            9                       (Unspecified)
system.caches.RequestType.LD.hit_latency_hist_seqr::samples     53506447                       (Unspecified)
system.caches.RequestType.LD.hit_latency_hist_seqr::mean     1.002317                       (Unspecified)
system.caches.RequestType.LD.hit_latency_hist_seqr::gmean     1.001607                       (Unspecified)
system.caches.RequestType.LD.hit_latency_hist_seqr::stdev     0.048079                       (Unspecified)
system.caches.RequestType.LD.hit_latency_hist_seqr |           0      0.00%      0.00% |    53382480     99.77%     99.77% |      123966      0.23%    100.00% |           1      0.00%    100.00% |           0      0.00%    100.00% |           0      0.00%    100.00% |           0      0.00%    100.00% |           0      0.00%    100.00% |           0      0.00%    100.00% |           0      0.00%    100.00% (Unspecified)
system.caches.RequestType.LD.hit_latency_hist_seqr::total     53506447                       (Unspecified)
system.caches.RequestType.LD.miss_latency_hist_seqr::bucket_size          512                       (Unspecified)
system.caches.RequestType.LD.miss_latency_hist_seqr::max_bucket         5119                       (Unspecified)
system.caches.RequestType.LD.miss_latency_hist_seqr::samples      7572940                       (Unspecified)
system.caches.RequestType.LD.miss_latency_hist_seqr::mean   338.874315                       (Unspecified)
system.caches.RequestType.LD.miss_latency_hist_seqr::gmean   145.788470                       (Unspecified)
system.caches.RequestType.LD.miss_latency_hist_seqr::stdev   314.489364                       (Unspecified)
system.caches.RequestType.LD.miss_latency_hist_seqr |     5916328     78.12%     78.12% |     1571021     20.75%     98.87% |        8338      0.11%     98.98% |       16275      0.21%     99.19% |       51540      0.68%     99.88% |        9319      0.12%    100.00% |          90      0.00%    100.00% |          28      0.00%    100.00% |           1      0.00%    100.00% |           0      0.00%    100.00% (Unspecified)
system.caches.RequestType.LD.miss_latency_hist_seqr::total      7572940                       (Unspecified)
system.caches.RequestType.ST.latency_hist_seqr::bucket_size          512                       (Unspecified)
system.caches.RequestType.ST.latency_hist_seqr::max_bucket         5119                       (Unspecified)
system.caches.RequestType.ST.latency_hist_seqr::samples      2118835                       (Unspecified)
system.caches.RequestType.ST.latency_hist_seqr::mean     3.668964                       (Unspecified)
system.caches.RequestType.ST.latency_hist_seqr::gmean     1.029635                       (Unspecified)
system.caches.RequestType.ST.latency_hist_seqr::stdev    48.453165                       (Unspecified)
system.caches.RequestType.ST.latency_hist_seqr |     2115007     99.82%     99.82% |        2898      0.14%     99.96% |         413      0.02%     99.98% |         357      0.02%     99.99% |         109      0.01%    100.00% |          28      0.00%    100.00% |          22      0.00%    100.00% |           1      0.00%    100.00% |           0      0.00%    100.00% |           0      0.00%    100.00% (Unspecified)
system.caches.RequestType.ST.latency_hist_seqr::total      2118835                       (Unspecified)
system.caches.RequestType.ST.hit_latency_hist_seqr::bucket_size           64                       (Unspecified)
system.caches.RequestType.ST.hit_latency_hist_seqr::max_bucket          639                       (Unspecified)
system.caches.RequestType.ST.hit_latency_hist_seqr::samples      2108757                       (Unspecified)
system.caches.RequestType.ST.hit_latency_hist_seqr::mean     1.002210                       (Unspecified)
system.caches.RequestType.ST.hit_latency_hist_seqr::gmean     1.000502                       (Unspecified)
system.caches.RequestType.ST.hit_latency_hist_seqr::stdev     0.711326                       (Unspecified)
[...]
system.o3Cpu7.iew.squashCycles                 571175                       # Number of cycles IEW is squashing (Cycle)
system.o3Cpu7.iew.blockCycles               148405647                       # Number of cycles IEW is blocking (Cycle)
system.o3Cpu7.iew.unblockCycles               9043202                       # Number of cycles IEW is unblocking (Cycle)
system.o3Cpu7.iew.dispatchedInsts            58222589                       # Number of instructions dispatched to IQ (Count)
system.o3Cpu7.iew.dispSquashedInsts              2255                       # Number of squashed instructions skipped by dispatch (Count)
system.o3Cpu7.iew.dispLoadInsts              11567945                       # Number of dispatched load instructions (Count)
system.o3Cpu7.iew.dispStoreInsts              1286813                       # Number of dispatched store instructions (Count)
system.o3Cpu7.iew.dispNonSpecInsts             937017                       # Number of dispatched non-speculative instructions (Count)
system.o3Cpu7.iew.iqFullEvents                 491091                       # Number of times the IQ has become full, causing a stall (Count)
system.o3Cpu7.iew.lsqFullEvents               8146876                       # Number of times the LSQ has become full, causing a stall (Count)
system.o3Cpu7.iew.memOrderViolationEvents       241187                       # Number of memory order violations (Count)
system.o3Cpu7.iew.predictedTakenIncorrect       128688                       # Number of branches that were predicted taken incorrectly (Count)
system.o3Cpu7.iew.predictedNotTakenIncorrect       209856                       # Number of branches that were predicted not taken incorrectly (Count)
system.o3Cpu7.iew.branchMispredicts            338544                       # Number of branch mispredicts detected at execute (Count)
system.o3Cpu7.iew.instsToCommit              46110311                       # Cumulative count of insts sent to commit (Count)
system.o3Cpu7.iew.writebackCount             46070669                       # Cumulative count of insts written-back (Count)
system.o3Cpu7.iew.producerInst               35258640                       # Number of instructions producing a value (Count)
system.o3Cpu7.iew.consumerInst               54949524                       # Number of instructions consuming a value (Count)
system.o3Cpu7.iew.wbRate                     0.192343                       # Insts written-back per cycle ((Count/Cycle))
system.o3Cpu7.iew.wbFanout                   0.641655                       # Average fanout of values written-back ((Count/Count))
system.o3Cpu7.interrupts.clk_domain.clock         3200                       # Clock period in ticks (Tick)
system.o3Cpu7.lsq0.forwLoads                     4805                       # Number of loads that had data forwarded from stores (Count)
system.o3Cpu7.lsq0.squashedLoads              5864553                       # Number of loads squashed (Count)
system.o3Cpu7.lsq0.ignoredResponses                 2                       # Number of memory responses ignored because the instruction is squashed (Count)
system.o3Cpu7.lsq0.memOrderViolation           241187                       # Number of memory ordering violations (Count)
system.o3Cpu7.lsq0.squashedStores              535059                       # Number of stores squashed (Count)
system.o3Cpu7.lsq0.rescheduledLoads                45                       # Number of loads that were rescheduled (Count)
system.o3Cpu7.lsq0.blockedByCache                   0                       # Number of times an access to memory failed due to the cache being blocked (Count)
system.o3Cpu7.lsq0.loadToUse::samples         5703379                       # Distribution of cycle latency between the first time a load is issued and its completion (Unspecified)
system.o3Cpu7.lsq0.loadToUse::mean          46.020914                       # Distribution of cycle latency between the first time a load is issued and its completion (Unspecified)
system.o3Cpu7.lsq0.loadToUse::stdev        159.323040                       # Distribution of cycle latency between the first time a load is issued and its completion (Unspecified)
system.o3Cpu7.lsq0.loadToUse::0-9             5011533     87.87%     87.87% # Distribution of cycle latency between the first time a load is issued and its completion (Unspecified)
system.o3Cpu7.lsq0.loadToUse::10-19            127552      2.24%     90.11% # Distribution of cycle latency between the first time a load is issued and its completion (Unspecified)
system.o3Cpu7.lsq0.loadToUse::20-29             71367      1.25%     91.36% # Distribution of cycle latency between the first time a load is issued and its completion (Unspecified)
system.o3Cpu7.lsq0.loadToUse::30-39              6239      0.11%     91.47% # Distribution of cycle latency between the first time a load is issued and its completion (Unspecified)
system.o3Cpu7.lsq0.loadToUse::40-49              2999      0.05%     91.52% # Distribution of cycle latency between the first time a load is issued and its completion (Unspecified)
system.o3Cpu7.lsq0.loadToUse::50-59               796      0.01%     91.53% # Distribution of cycle latency between the first time a load is issued and its completion (Unspecified)
system.o3Cpu7.lsq0.loadToUse::60-69               427      0.01%     91.54% # Distribution of cycle latency between the first time a load is issued and its completion (Unspecified)
system.o3Cpu7.lsq0.loadToUse::70-79               453      0.01%     91.55% # Distribution of cycle latency between the first time a load is issued and its completion (Unspecified)
system.o3Cpu7.lsq0.loadToUse::80-89               419      0.01%     91.56% # Distribution of cycle latency between the first time a load is issued and its completion (Unspecified)
system.o3Cpu7.lsq0.loadToUse::90-99               290      0.01%     91.56% # Distribution of cycle latency between the first time a load is issued and its completion (Unspecified)
system.o3Cpu7.lsq0.loadToUse::100-109             243      0.00%     91.57% # Distribution of cycle latency between the first time a load is issued and its completion (Unspecified)
system.o3Cpu7.lsq0.loadToUse::110-119             246      0.00%     91.57% # Distribution of cycle latency between the first time a load is issued and its completion (Unspecified)
system.o3Cpu7.lsq0.loadToUse::120-129             264      0.00%     91.57% # Distribution of cycle latency between the first time a load is issued and its completion (Unspecified)
system.o3Cpu7.lsq0.loadToUse::130-139             286      0.01%     91.58% # Distribution of cycle latency between the first time a load is issued and its completion (Unspecified)
system.o3Cpu7.lsq0.loadToUse::140-149             241      0.00%     91.58% # Distribution of cycle latency between the first time a load is issued and its completion (Unspecified)
system.o3Cpu7.lsq0.loadToUse::150-159             287      0.01%     91.59% # Distribution of cycle latency between the first time a load is issued and its completion (Unspecified)
system.o3Cpu7.lsq0.loadToUse::160-169             295      0.01%     91.59% # Distribution of cycle latency between the first time a load is issued and its completion (Unspecified)
system.o3Cpu7.lsq0.loadToUse::170-179             376      0.01%     91.60% # Distribution of cycle latency between the first time a load is issued and its completion (Unspecified)
system.o3Cpu7.lsq0.loadToUse::180-189             521      0.01%     91.61% # Distribution of cycle latency between the first time a load is issued and its completion (Unspecified)
system.o3Cpu7.lsq0.loadToUse::190-199             608      0.01%     91.62% # Distribution of cycle latency between the first time a load is issued and its completion (Unspecified)
system.o3Cpu7.lsq0.loadToUse::200-209             753      0.01%     91.63% # Distribution of cycle latency between the first time a load is issued and its completion (Unspecified)
system.o3Cpu7.lsq0.loadToUse::210-219             969      0.02%     91.65% # Distribution of cycle latency between the first time a load is issued and its completion (Unspecified)
system.o3Cpu7.lsq0.loadToUse::220-229             673      0.01%     91.66% # Distribution of cycle latency between the first time a load is issued and its completion (Unspecified)
system.o3Cpu7.lsq0.loadToUse::230-239             597      0.01%     91.67% # Distribution of cycle latency between the first time a load is issued and its completion (Unspecified)
system.o3Cpu7.lsq0.loadToUse::240-249             550      0.01%     91.68% # Distribution of cycle latency between the first time a load is issued and its completion (Unspecified)
system.o3Cpu7.lsq0.loadToUse::250-259             515      0.01%     91.69% # Distribution of cycle latency between the first time a load is issued and its completion (Unspecified)
system.o3Cpu7.lsq0.loadToUse::260-269             480      0.01%     91.70% # Distribution of cycle latency between the first time a load is issued and its completion (Unspecified)
system.o3Cpu7.lsq0.loadToUse::270-279             574      0.01%     91.71% # Distribution of cycle latency between the first time a load is issued and its completion (Unspecified)
system.o3Cpu7.lsq0.loadToUse::280-289            2679      0.05%     91.76% # Distribution of cycle latency between the first time a load is issued and its completion (Unspecified)
system.o3Cpu7.lsq0.loadToUse::290-299            3531      0.06%     91.82% # Distribution of cycle latency between the first time a load is issued and its completion (Unspecified)
system.o3Cpu7.lsq0.loadToUse::overflows        466616      8.18%    100.00% # Distribution of cycle latency between the first time a load is issued and its completion (Unspecified)
system.o3Cpu7.lsq0.loadToUse::min_value             2                       # Distribution of cycle latency between the first time a load is issued and its completion (Unspecified)
system.o3Cpu7.lsq0.loadToUse::max_value          4268                       # Distribution of cycle latency between the first time a load is issued and its completion (Unspecified)
system.o3Cpu7.lsq0.loadToUse::total           5703379                       # Distribution of cycle latency between the first time a load is issued and its completion (Unspecified)
system.o3Cpu7.mmu.dtb.rdAccesses              8500046                       # TLB accesses on read requests (Count)
system.o3Cpu7.mmu.dtb.wrAccesses               754079                       # TLB accesses on write requests (Count)
system.o3Cpu7.mmu.dtb.rdMisses                 112255                       # TLB misses on read requests (Count)
system.o3Cpu7.mmu.dtb.wrMisses                   1768                       # TLB misses on write requests (Count)
system.o3Cpu7.mmu.dtb.walker.power_state.pwrStateResidencyTicks::UNDEFINED  48918261600                       # Cumulative time (in ticks) in various power states (Tick)
system.o3Cpu7.mmu.itb.rdAccesses                    0                       # TLB accesses on read requests (Count)
system.o3Cpu7.mmu.itb.wrAccesses              7408826                       # TLB accesses on write requests (Count)
system.o3Cpu7.mmu.itb.rdMisses                      0                       # TLB misses on read requests (Count)
system.o3Cpu7.mmu.itb.wrMisses                    156                       # TLB misses on write requests (Count)
system.o3Cpu7.mmu.itb.walker.power_state.pwrStateResidencyTicks::UNDEFINED  48918261600                       # Cumulative time (in ticks) in various power states (Tick)
system.o3Cpu7.power_state.pwrStateResidencyTicks::OFF  48918261600                       # Cumulative time (in ticks) in various power states (Tick)
system.o3Cpu7.rename.squashCycles              571175                       # Number of cycles rename is squashing (Cycle)
system.o3Cpu7.rename.idleCycles               5766447                       # Number of cycles rename is idle (Cycle)
system.o3Cpu7.rename.blockCycles            180154479                       # Number of cycles rename is blocking (Cycle)
system.o3Cpu7.rename.serializeStallCycles       366094                       # count of cycles rename stalled for serializing inst (Cycle)
system.o3Cpu7.rename.runCycles               13639814                       # Number of cycles rename is running (Cycle)
system.o3Cpu7.rename.unblockCycles           38771336                       # Number of cycles rename is unblocking (Cycle)
system.o3Cpu7.rename.renamedInsts            60130085                       # Number of instructions processed by rename (Count)
system.o3Cpu7.rename.ROBFullEvents             265770                       # Number of times rename has blocked due to ROB full (Count)
system.o3Cpu7.rename.IQFullEvents            12355922                       # Number of times rename has blocked due to IQ full (Count)
system.o3Cpu7.rename.LQFullEvents            31475975                       # Number of times rename has blocked due to LQ full (Count)
system.o3Cpu7.rename.SQFullEvents               75562                       # Number of times rename has blocked due to SQ full (Count)
system.o3Cpu7.rename.renamedOperands        111113989                       # Number of destination operands rename has renamed (Count)
system.o3Cpu7.rename.lookups                213859371                       # Number of register rename lookups that rename has made (Count)
system.o3Cpu7.rename.intLookups              74913573                       # Number of integer rename lookups (Count)
system.o3Cpu7.rename.fpLookups                2314920                       # Number of floating rename lookups (Count)
system.o3Cpu7.rename.committedMaps           50903436                       # Number of HB maps that are committed (Count)
system.o3Cpu7.rename.undoneMaps              60210452                       # Number of HB maps that are undone due to squashing (Count)
system.o3Cpu7.rename.serializing                 1819                       # count of serializing insts renamed (Count)
system.o3Cpu7.rename.tempSerializing             1839                       # count of temporary serializing insts renamed (Count)
system.o3Cpu7.rename.skidInsts               13988347                       # count of insts added to the skid buffer (Count)
system.o3Cpu7.rob.reads                     285781943                       # The number of ROB reads (Count)
system.o3Cpu7.rob.writes                    124724518                       # The number of ROB writes (Count)
system.o3Cpu7.thread_0.numInsts              16351863                       # Number of Instructions committed (Count)
system.o3Cpu7.thread_0.numOps                28252927                       # Number of Ops committed (Count)
system.o3Cpu7.thread_0.numMemRefs                   0                       # Number of Memory References (Count)
system.pc.bad_addr.power_state.pwrStateResidencyTicks::UNDEFINED  48918261600                       # Cumulative time (in ticks) in various power states (Tick)
system.pc.com_1.power_state.pwrStateResidencyTicks::UNDEFINED  48918261600                       # Cumulative time (in ticks) in various power states (Tick)
system.pc.default_bus.power_state.pwrStateResidencyTicks::UNDEFINED  48918261600                       # Cumulative time (in ticks) in various power states (Tick)
system.pc.empty_isa.power_state.pwrStateResidencyTicks::UNDEFINED  48918261600                       # Cumulative time (in ticks) in various power states (Tick)
system.pc.fake_com_2.power_state.pwrStateResidencyTicks::UNDEFINED  48918261600                       # Cumulative time (in ticks) in various power states (Tick)
system.pc.fake_com_3.power_state.pwrStateResidencyTicks::UNDEFINED  48918261600                       # Cumulative time (in ticks) in various power states (Tick)
system.pc.fake_com_4.power_state.pwrStateResidencyTicks::UNDEFINED  48918261600                       # Cumulative time (in ticks) in various power states (Tick)
system.pc.fake_floppy.power_state.pwrStateResidencyTicks::UNDEFINED  48918261600                       # Cumulative time (in ticks) in various power states (Tick)
system.pc.pci_host.power_state.pwrStateResidencyTicks::UNDEFINED  48918261600                       # Cumulative time (in ticks) in various power states (Tick)
system.pc.south_bridge.cmos.power_state.pwrStateResidencyTicks::UNDEFINED  48918261600                       # Cumulative time (in ticks) in various power states (Tick)
system.pc.south_bridge.dma1.power_state.pwrStateResidencyTicks::UNDEFINED  48918261600                       # Cumulative time (in ticks) in various power states (Tick)
system.pc.south_bridge.ide.disks0.IdeDisk.dmaReadFullPages            0                       # Number of full page size DMA reads (not PRD). (Count)
system.pc.south_bridge.ide.disks0.IdeDisk.dmaReadBytes            0                       # Number of bytes transfered via DMA reads (not PRD). (Byte)
system.pc.south_bridge.ide.disks0.IdeDisk.dmaReadTxs            0                       # Number of DMA read transactions (not PRD). (Count)
system.pc.south_bridge.ide.disks0.IdeDisk.dmaWriteFullPages            0                       # Number of full page size DMA writes. (Count)
system.pc.south_bridge.ide.disks0.IdeDisk.dmaWriteBytes            0                       # Number of bytes transfered via DMA writes. (Byte)
system.pc.south_bridge.ide.disks0.IdeDisk.dmaWriteTxs            0                       # Number of DMA write transactions. (Count)
system.pc.south_bridge.ide.disks1.IdeDisk.dmaReadFullPages            0                       # Number of full page size DMA reads (not PRD). (Count)
system.pc.south_bridge.ide.disks1.IdeDisk.dmaReadBytes            0                       # Number of bytes transfered via DMA reads (not PRD). (Byte)
system.pc.south_bridge.ide.disks1.IdeDisk.dmaReadTxs            0                       # Number of DMA read transactions (not PRD). (Count)
system.pc.south_bridge.ide.disks1.IdeDisk.dmaWriteFullPages            0                       # Number of full page size DMA writes. (Count)
system.pc.south_bridge.ide.disks1.IdeDisk.dmaWriteBytes            0                       # Number of bytes transfered via DMA writes. (Byte)
system.pc.south_bridge.ide.disks1.IdeDisk.dmaWriteTxs            0                       # Number of DMA write transactions. (Count)
system.pc.south_bridge.ide.power_state.pwrStateResidencyTicks::UNDEFINED  48918261600                       # Cumulative time (in ticks) in various power states (Tick)
system.pc.south_bridge.io_apic.power_state.pwrStateResidencyTicks::UNDEFINED  48918261600                       # Cumulative time (in ticks) in various power states (Tick)
system.pc.south_bridge.keyboard.power_state.pwrStateResidencyTicks::UNDEFINED  48918261600                       # Cumulative time (in ticks) in various power states (Tick)
system.pc.south_bridge.pic1.power_state.pwrStateResidencyTicks::UNDEFINED  48918261600                       # Cumulative time (in ticks) in various power states (Tick)
system.pc.south_bridge.pic2.power_state.pwrStateResidencyTicks::UNDEFINED  48918261600                       # Cumulative time (in ticks) in various power states (Tick)
system.pc.south_bridge.pit.power_state.pwrStateResidencyTicks::UNDEFINED  48918261600                       # Cumulative time (in ticks) in various power states (Tick)
system.pc.south_bridge.speaker.power_state.pwrStateResidencyTicks::UNDEFINED  48918261600                       # Cumulative time (in ticks) in various power states (Tick)
system.workload.inst.arm                            0                       # number of arm instructions executed (Count)
system.workload.inst.quiesce                        0                       # number of quiesce instructions executed (Count)

---------- End Simulation Statistics   ----------
