
---------- Begin Simulation Statistics ----------
simSeconds                                   0.035449                       # Number of seconds simulated (Second)
simTicks                                  35448597450                       # Number of ticks simulated (Tick)
finalTick                                562896870367800                       # Number of ticks from beginning of simulation (restored from checkpoints and never reset) (Tick)
simFreq                                  1000000000000                       # The number of ticks per simulated second ((Tick/Second))
hostSeconds                                   8400.25                       # Real time elapsed on the host (Second)
hostTickRate                                  4219945                       # The number of ticks simulated per host second (ticks/s) ((Tick/Second))
hostMemory                                   71768456                       # Number of bytes of host memory used (Byte)
simInsts                                    316162833                       # Number of instructions simulated (Count)
simOps                                      516986366                       # Number of ops (including micro ops) simulated (Count)
hostInstRate                                    37637                       # Simulator instruction rate (inst/s) ((Count/Second))
hostOpRate                                      61544                       # Simulator op (including micro ops) rate (op/s) ((Count/Second))
system.caches.delayHistogram::bucket_size          256                       # delay histogram for all message (Unspecified)
system.caches.delayHistogram::max_bucket         2559                       # delay histogram for all message (Unspecified)
system.caches.delayHistogram::samples        39542780                       # delay histogram for all message (Unspecified)
system.caches.delayHistogram::mean           0.427313                       # delay histogram for all message (Unspecified)
system.caches.delayHistogram::stdev          1.907368                       # delay histogram for all message (Unspecified)
system.caches.delayHistogram             |    39542764    100.00%    100.00% |           9      0.00%    100.00% |           3      0.00%    100.00% |           1      0.00%    100.00% |           1      0.00%    100.00% |           1      0.00%    100.00% |           1      0.00%    100.00% |           0      0.00%    100.00% |           0      0.00%    100.00% |           0      0.00%    100.00% # delay histogram for all message (Unspecified)
system.caches.delayHistogram::total          39542780                       # delay histogram for all message (Unspecified)
system.caches.m_outstandReqHistSeqr::bucket_size            2                       (Unspecified)
system.caches.m_outstandReqHistSeqr::max_bucket           19                       (Unspecified)
system.caches.m_outstandReqHistSeqr::samples    166173131                       (Unspecified)
system.caches.m_outstandReqHistSeqr::mean     2.360059                       (Unspecified)
system.caches.m_outstandReqHistSeqr::gmean     1.870435                       (Unspecified)
system.caches.m_outstandReqHistSeqr::stdev     1.891864                       (Unspecified)
system.caches.m_outstandReqHistSeqr      |    72134630     43.41%     43.41% |    64167726     38.61%     82.02% |    19107682     11.50%     93.52% |     5814048      3.50%     97.02% |     2746463      1.65%     98.67% |     1657586      1.00%     99.67% |      500401      0.30%     99.97% |       35487      0.02%     99.99% |        9108      0.01%    100.00% |           0      0.00%    100.00% (Unspecified)
system.caches.m_outstandReqHistSeqr::total    166173131                       (Unspecified)
system.caches.m_latencyHistSeqr::bucket_size          512                       (Unspecified)
system.caches.m_latencyHistSeqr::max_bucket         5119                       (Unspecified)
system.caches.m_latencyHistSeqr::samples    166219978                       (Unspecified)
system.caches.m_latencyHistSeqr::mean       11.386350                       (Unspecified)
system.caches.m_latencyHistSeqr::gmean       1.267889                       (Unspecified)
system.caches.m_latencyHistSeqr::stdev      75.404503                       (Unspecified)
system.caches.m_latencyHistSeqr          |   165457323     99.54%     99.54% |      701468      0.42%     99.96% |        9035      0.01%     99.97% |       15056      0.01%     99.98% |       33092      0.02%    100.00% |        3881      0.00%    100.00% |         112      0.00%    100.00% |          11      0.00%    100.00% |           0      0.00%    100.00% |           0      0.00%    100.00% (Unspecified)
system.caches.m_latencyHistSeqr::total      166219978                       (Unspecified)
system.caches.m_hitLatencyHistSeqr::bucket_size          512                       (Unspecified)
system.caches.m_hitLatencyHistSeqr::max_bucket         5119                       (Unspecified)
system.caches.m_hitLatencyHistSeqr::samples    155978272                       (Unspecified)
system.caches.m_hitLatencyHistSeqr::mean     1.001943                       (Unspecified)
system.caches.m_hitLatencyHistSeqr::gmean     1.000486                       (Unspecified)
system.caches.m_hitLatencyHistSeqr::stdev     1.019654                       (Unspecified)
system.caches.m_hitLatencyHistSeqr       |   155978152    100.00%    100.00% |          93      0.00%    100.00% |           9      0.00%    100.00% |          11      0.00%    100.00% |           6      0.00%    100.00% |           1      0.00%    100.00% |           0      0.00%    100.00% |           0      0.00%    100.00% |           0      0.00%    100.00% |           0      0.00%    100.00% (Unspecified)
system.caches.m_hitLatencyHistSeqr::total    155978272                       (Unspecified)
system.caches.m_missLatencyHistSeqr::bucket_size          512                       (Unspecified)
system.caches.m_missLatencyHistSeqr::max_bucket         5119                       (Unspecified)
system.caches.m_missLatencyHistSeqr::samples     10241706                       (Unspecified)
system.caches.m_missLatencyHistSeqr::mean   169.537922                       (Unspecified)
system.caches.m_missLatencyHistSeqr::gmean    46.748156                       (Unspecified)
system.caches.m_missLatencyHistSeqr::stdev   256.143504                       (Unspecified)
system.caches.m_missLatencyHistSeqr      |     9479171     92.55%     92.55% |      701375      6.85%     99.40% |        9026      0.09%     99.49% |       15045      0.15%     99.64% |       33086      0.32%     99.96% |        3880      0.04%    100.00% |         112      0.00%    100.00% |          11      0.00%    100.00% |           0      0.00%    100.00% |           0      0.00%    100.00% (Unspecified)
system.caches.m_missLatencyHistSeqr::total     10241706                       (Unspecified)
system.caches.delayVCHist.vnet_0::bucket_size          256                       # delay histogram for vnet_0 (Unspecified)
system.caches.delayVCHist.vnet_0::max_bucket         2559                       # delay histogram for vnet_0 (Unspecified)
system.caches.delayVCHist.vnet_0::samples     17657226                       # delay histogram for vnet_0 (Unspecified)
system.caches.delayVCHist.vnet_0::mean       0.408858                       # delay histogram for vnet_0 (Unspecified)
system.caches.delayVCHist.vnet_0::stdev      1.949547                       # delay histogram for vnet_0 (Unspecified)
system.caches.delayVCHist.vnet_0         |    17657210    100.00%    100.00% |           9      0.00%    100.00% |           3      0.00%    100.00% |           1      0.00%    100.00% |           1      0.00%    100.00% |           1      0.00%    100.00% |           1      0.00%    100.00% |           0      0.00%    100.00% |           0      0.00%    100.00% |           0      0.00%    100.00% # delay histogram for vnet_0 (Unspecified)
system.caches.delayVCHist.vnet_0::total      17657226                       # delay histogram for vnet_0 (Unspecified)
system.caches.delayVCHist.vnet_1::bucket_size            8                       # delay histogram for vnet_1 (Unspecified)
system.caches.delayVCHist.vnet_1::max_bucket           79                       # delay histogram for vnet_1 (Unspecified)
system.caches.delayVCHist.vnet_1::samples     21558108                       # delay histogram for vnet_1 (Unspecified)
system.caches.delayVCHist.vnet_1::mean       0.448909                       # delay histogram for vnet_1 (Unspecified)
system.caches.delayVCHist.vnet_1::stdev      1.885878                       # delay histogram for vnet_1 (Unspecified)
system.caches.delayVCHist.vnet_1         |    21075424     97.76%     97.76% |      413788      1.92%     99.68% |       61919      0.29%     99.97% |        6501      0.03%    100.00% |         469      0.00%    100.00% |           7      0.00%    100.00% |           0      0.00%    100.00% |           0      0.00%    100.00% |           0      0.00%    100.00% |           0      0.00%    100.00% # delay histogram for vnet_1 (Unspecified)
system.caches.delayVCHist.vnet_1::total      21558108                       # delay histogram for vnet_1 (Unspecified)
system.caches.delayVCHist.vnet_2::bucket_size            1                       # delay histogram for vnet_2 (Unspecified)
system.caches.delayVCHist.vnet_2::max_bucket            9                       # delay histogram for vnet_2 (Unspecified)
system.caches.delayVCHist.vnet_2::samples       327446                       # delay histogram for vnet_2 (Unspecified)
system.caches.delayVCHist.vnet_2::mean       0.000696                       # delay histogram for vnet_2 (Unspecified)
system.caches.delayVCHist.vnet_2::stdev      0.038598                       # delay histogram for vnet_2 (Unspecified)
system.caches.delayVCHist.vnet_2         |      327336     99.97%     99.97% |           0      0.00%     99.97% |         106      0.03%    100.00% |           0      0.00%    100.00% |           4      0.00%    100.00% |           0      0.00%    100.00% |           0      0.00%    100.00% |           0      0.00%    100.00% |           0      0.00%    100.00% |           0      0.00%    100.00% # delay histogram for vnet_2 (Unspecified)
system.caches.delayVCHist.vnet_2::total        327446                       # delay histogram for vnet_2 (Unspecified)
system.caches.L1Cache_Controller.Load    |    12330238     12.72%     12.72% |    12092331     12.47%     25.19% |    12347596     12.73%     37.92% |    12150915     12.53%     50.46% |    11348231     11.70%     62.16% |    12195708     12.58%     74.74% |    12133568     12.51%     87.25% |    12359826     12.75%    100.00% (Unspecified)
system.caches.L1Cache_Controller.Load::total     96958413                       (Unspecified)
system.caches.L1Cache_Controller.Ifetch  |     7067984     12.42%     12.42% |     7113589     12.50%     24.93% |     7062323     12.41%     37.34% |     7094664     12.47%     49.81% |     7169578     12.60%     62.41% |     7150703     12.57%     74.98% |     7154057     12.57%     87.55% |     7081735     12.45%    100.00% (Unspecified)
system.caches.L1Cache_Controller.Ifetch::total     56894633                       (Unspecified)
system.caches.L1Cache_Controller.Store   |     1505654     12.17%     12.17% |     1510093     12.21%     24.39% |     1498941     12.12%     36.51% |     1505384     12.17%     48.68% |     1811392     14.65%     63.33% |     1514727     12.25%     75.57% |     1515606     12.26%     87.83% |     1505143     12.17%    100.00% (Unspecified)
system.caches.L1Cache_Controller.Store::total     12366940                       (Unspecified)
system.caches.L1Cache_Controller.Inv     |       37342     13.57%     13.57% |       35927     13.05%     26.62% |       35763     12.99%     39.62% |       34938     12.69%     52.31% |       27330      9.93%     62.24% |       34241     12.44%     74.68% |       34643     12.59%     87.27% |       35044     12.73%    100.00% (Unspecified)
system.caches.L1Cache_Controller.Inv::total       275228                       (Unspecified)
system.caches.L1Cache_Controller.L1_Replacement |     1264577     12.43%     12.43% |     1265184     12.43%     24.86% |     1261906     12.40%     37.26% |     1264111     12.42%     49.68% |     1308535     12.86%     62.54% |     1271269     12.49%     75.03% |     1273046     12.51%     87.54% |     1268157     12.46%    100.00% (Unspecified)
system.caches.L1Cache_Controller.L1_Replacement::total     10176785                       (Unspecified)
system.caches.L1Cache_Controller.Fwd_GETX |        1079     13.92%     13.92% |        1045     13.48%     27.40% |         867     11.18%     38.58% |         886     11.43%     50.01% |         919     11.85%     61.86% |         996     12.85%     74.71% |         952     12.28%     86.99% |        1009     13.01%    100.00% (Unspecified)
system.caches.L1Cache_Controller.Fwd_GETX::total         7753                       (Unspecified)
system.caches.L1Cache_Controller.Fwd_GETS |        6329     14.23%     14.23% |        5794     13.03%     27.26% |        5344     12.02%     39.28% |        5252     11.81%     51.09% |        5688     12.79%     63.89% |        5427     12.21%     76.09% |        5353     12.04%     88.13% |        5278     11.87%    100.00% (Unspecified)
system.caches.L1Cache_Controller.Fwd_GETS::total        44465                       (Unspecified)
system.caches.L1Cache_Controller.Data    |          43      0.64%      0.64% |           0      0.00%      0.64% |           3      0.04%      0.68% |           1      0.01%      0.70% |        6668     99.18%     99.88% |           2      0.03%     99.91% |           3      0.04%     99.96% |           3      0.04%    100.00% (Unspecified)
system.caches.L1Cache_Controller.Data::total         6723                       (Unspecified)
system.caches.L1Cache_Controller.Data_Exclusive |      425663     12.45%     12.45% |      426774     12.49%     24.94% |      425212     12.44%     37.38% |      426387     12.47%     49.85% |      431241     12.62%     62.47% |      427993     12.52%     74.99% |      428337     12.53%     87.52% |      426574     12.48%    100.00% (Unspecified)
system.caches.L1Cache_Controller.Data_Exclusive::total      3418181                       (Unspecified)
system.caches.L1Cache_Controller.DataS_fromL1 |        5375     12.09%     12.09% |        6277     14.12%     26.20% |        5789     13.02%     39.22% |        5370     12.08%     51.30% |        5478     12.32%     63.62% |        5495     12.36%     75.98% |        5330     11.99%     87.97% |        5351     12.03%    100.00% (Unspecified)
system.caches.L1Cache_Controller.DataS_fromL1::total        44465                       (Unspecified)
system.caches.L1Cache_Controller.Data_all_Acks |      840757     12.43%     12.43% |      839590     12.41%     24.84% |      838240     12.39%     37.23% |      839625     12.41%     49.64% |      872087     12.89%     62.53% |      845005     12.49%     75.02% |      846571     12.51%     87.53% |      843592     12.47%    100.00% (Unspecified)
system.caches.L1Cache_Controller.Data_all_Acks::total      6765467                       (Unspecified)
system.caches.L1Cache_Controller.Ack     |        1384      2.45%      2.45% |         761      1.35%      3.80% |         624      1.10%      4.90% |         636      1.13%      6.03% |       51101     90.48%     96.51% |         668      1.18%     97.69% |         612      1.08%     98.77% |         693      1.23%    100.00% (Unspecified)
system.caches.L1Cache_Controller.Ack::total        56479                       (Unspecified)
system.caches.L1Cache_Controller.Ack_all |         890      6.55%      6.55% |         714      5.25%     11.80% |         598      4.40%     16.20% |         603      4.44%     20.64% |        8921     65.63%     86.26% |         633      4.66%     90.92% |         584      4.30%     95.22% |         650      4.78%    100.00% (Unspecified)
system.caches.L1Cache_Controller.Ack_all::total        13593                       (Unspecified)
system.caches.L1Cache_Controller.WB_Ack  |      450193     12.37%     12.37% |      450450     12.37%     24.74% |      447439     12.29%     37.03% |      450378     12.37%     49.40% |      488633     13.42%     62.83% |      452294     12.42%     75.25% |      452502     12.43%     87.68% |      448362     12.32%    100.00% (Unspecified)
system.caches.L1Cache_Controller.WB_Ack::total      3640251                       (Unspecified)
system.caches.L1Cache_Controller.NP.Load |     1225926     12.45%     12.45% |     1227997     12.48%     24.93% |     1225368     12.45%     37.38% |     1226939     12.47%     49.85% |     1235360     12.55%     62.40% |     1233825     12.54%     74.93% |     1235836     12.56%     87.49% |     1231653     12.51%    100.00% (Unspecified)
system.caches.L1Cache_Controller.NP.Load::total      9842904                       (Unspecified)
system.caches.L1Cache_Controller.NP.Ifetch |        5641     15.83%     15.83% |        3675     10.31%     26.14% |        3864     10.84%     36.99% |        3614     10.14%     47.13% |        7655     21.48%     68.61% |        3629     10.18%     78.80% |        3632     10.19%     88.99% |        3924     11.01%    100.00% (Unspecified)
system.caches.L1Cache_Controller.NP.Ifetch::total        35634                       (Unspecified)
system.caches.L1Cache_Controller.NP.Store |       33138     11.08%     11.08% |       33616     11.24%     22.33% |       32778     10.96%     33.29% |       33662     11.26%     44.55% |       65520     21.91%     66.46% |       33918     11.34%     77.80% |       33681     11.26%     89.07% |       32683     10.93%    100.00% (Unspecified)
system.caches.L1Cache_Controller.NP.Store::total       298996                       (Unspecified)
system.caches.L1Cache_Controller.NP.Inv  |       20723     13.23%     13.23% |       19988     12.76%     25.99% |       19895     12.70%     38.69% |       19852     12.67%     51.36% |       16415     10.48%     61.84% |       19843     12.67%     74.50% |       19999     12.77%     87.27% |       19947     12.73%    100.00% (Unspecified)
system.caches.L1Cache_Controller.NP.Inv::total       156662                       (Unspecified)
system.caches.L1Cache_Controller.I.Load  |        2167     12.05%     12.05% |        2319     12.89%     24.94% |        2378     13.22%     38.16% |        2337     12.99%     51.15% |        2195     12.20%     63.35% |        2173     12.08%     75.43% |        2160     12.01%     87.44% |        2259     12.56%    100.00% (Unspecified)
system.caches.L1Cache_Controller.I.Load::total        17988                       (Unspecified)
system.caches.L1Cache_Controller.I.Ifetch |        3985     12.23%     12.23% |        4151     12.74%     24.98% |        4089     12.55%     37.53% |        4096     12.57%     50.11% |        3952     12.13%     62.24% |        4097     12.58%     74.82% |        4105     12.60%     87.42% |        4098     12.58%    100.00% (Unspecified)
system.caches.L1Cache_Controller.I.Ifetch::total        32573                       (Unspecified)
system.caches.L1Cache_Controller.I.Store |         982     14.57%     14.57% |         883     13.10%     27.67% |         768     11.39%     39.06% |         735     10.90%     49.96% |         793     11.76%     61.73% |         851     12.62%     74.35% |         826     12.25%     86.60% |         903     13.40%    100.00% (Unspecified)
system.caches.L1Cache_Controller.I.Store::total         6741                       (Unspecified)
system.caches.L1Cache_Controller.I.L1_Replacement |       10531     11.59%     11.59% |       11655     12.82%     24.41% |       12534     13.79%     38.20% |       11649     12.82%     51.01% |        8688      9.56%     60.57% |       11552     12.71%     73.28% |       11443     12.59%     85.87% |       12841     14.13%    100.00% (Unspecified)
system.caches.L1Cache_Controller.I.L1_Replacement::total        90893                       (Unspecified)
system.caches.L1Cache_Controller.S.Load  |     7334336     12.87%     12.87% |     7109802     12.47%     25.34% |     7381787     12.95%     38.29% |     7184264     12.60%     50.90% |     6314369     11.08%     61.98% |     7168855     12.58%     74.56% |     7124905     12.50%     87.06% |     7377474     12.94%    100.00% (Unspecified)
system.caches.L1Cache_Controller.S.Load::total     56995792                       (Unspecified)
system.caches.L1Cache_Controller.S.Ifetch |     7058358     12.42%     12.42% |     7105763     12.50%     24.93% |     7054370     12.41%     37.34% |     7086954     12.47%     49.81% |     7157971     12.60%     62.41% |     7142977     12.57%     74.98% |     7146320     12.58%     87.55% |     7073713     12.45%    100.00% (Unspecified)
system.caches.L1Cache_Controller.S.Ifetch::total     56826426                       (Unspecified)
system.caches.L1Cache_Controller.S.Store |         847     12.31%     12.31% |         715     10.40%     22.71% |         596      8.67%     31.38% |         602      8.75%     40.13% |        2253     32.76%     72.88% |         633      9.20%     82.09% |         583      8.48%     90.56% |         649      9.44%    100.00% (Unspecified)
system.caches.L1Cache_Controller.S.Store::total         6878                       (Unspecified)
system.caches.L1Cache_Controller.S.Inv   |       11817     13.40%     13.40% |       11444     12.98%     26.37% |       11394     12.92%     39.29% |       11328     12.84%     52.14% |        8433      9.56%     61.70% |       11309     12.82%     74.52% |       11204     12.70%     87.23% |       11265     12.77%    100.00% (Unspecified)
system.caches.L1Cache_Controller.S.Inv::total        88194                       (Unspecified)
system.caches.L1Cache_Controller.S.L1_Replacement |      803853     12.47%     12.47% |      803079     12.46%     24.93% |      801933     12.44%     37.37% |      802084     12.44%     49.82% |      811214     12.59%     62.40% |      807423     12.53%     74.93% |      809101     12.55%     87.48% |      806954     12.52%    100.00% (Unspecified)
system.caches.L1Cache_Controller.S.L1_Replacement::total      6445641                       (Unspecified)
system.caches.L1Cache_Controller.E.Load  |     3094046     12.51%     12.51% |     3088617     12.49%     25.00% |     3072704     12.42%     37.42% |     3074917     12.43%     49.85% |     3099493     12.53%     62.38% |     3123758     12.63%     75.01% |     3101981     12.54%     87.55% |     3079523     12.45%    100.00% (Unspecified)
system.caches.L1Cache_Controller.E.Load::total     24735039                       (Unspecified)
system.caches.L1Cache_Controller.E.Store |       43196     12.45%     12.45% |       42739     12.32%     24.76% |       42947     12.38%     37.14% |       42803     12.33%     49.48% |       45982     13.25%     62.73% |       43063     12.41%     75.14% |       43228     12.46%     87.59% |       43048     12.41%    100.00% (Unspecified)
system.caches.L1Cache_Controller.E.Store::total       347006                       (Unspecified)
system.caches.L1Cache_Controller.E.Inv   |        3339     14.05%     14.05% |        4027     16.95%     31.00% |        2798     11.78%     42.78% |        3282     13.81%     56.59% |        1958      8.24%     64.83% |        2755     11.60%     76.43% |        3094     13.02%     89.45% |        2507     10.55%    100.00% (Unspecified)
system.caches.L1Cache_Controller.E.Inv::total        23760                       (Unspecified)
system.caches.L1Cache_Controller.E.L1_Replacement |      371849     12.40%     12.40% |      375045     12.50%     24.90% |      373351     12.45%     37.35% |      374947     12.50%     49.85% |      376854     12.56%     62.42% |      376310     12.55%     74.96% |      376540     12.55%     87.52% |      374425     12.48%    100.00% (Unspecified)
system.caches.L1Cache_Controller.E.L1_Replacement::total      2999321                       (Unspecified)
system.caches.L1Cache_Controller.E.Fwd_GETX |           9     14.29%     14.29% |          21     33.33%     47.62% |           7     11.11%     58.73% |           6      9.52%     68.25% |           2      3.17%     71.43% |           8     12.70%     84.13% |           5      7.94%     92.06% |           5      7.94%    100.00% (Unspecified)
system.caches.L1Cache_Controller.E.Fwd_GETX::total           63                       (Unspecified)
system.caches.L1Cache_Controller.E.Fwd_GETS |        5250     13.81%     13.81% |        5060     13.31%     27.12% |        4606     12.11%     39.23% |        4503     11.84%     51.08% |        4774     12.56%     63.63% |        4670     12.28%     75.92% |        4604     12.11%     88.02% |        4553     11.98%    100.00% (Unspecified)
system.caches.L1Cache_Controller.E.Fwd_GETS::total        38020                       (Unspecified)
system.caches.L1Cache_Controller.M.Load  |      673763     12.55%     12.55% |      663596     12.37%     24.92% |      665359     12.40%     37.32% |      662458     12.34%     49.66% |      696814     12.98%     62.65% |      667097     12.43%     75.08% |      668686     12.46%     87.54% |      668917     12.46%    100.00% (Unspecified)
system.caches.L1Cache_Controller.M.Load::total      5366690                       (Unspecified)
system.caches.L1Cache_Controller.M.Store |     1427491     12.19%     12.19% |     1432140     12.23%     24.43% |     1421852     12.14%     36.57% |     1427582     12.19%     48.76% |     1696844     14.49%     63.26% |     1436262     12.27%     75.53% |     1437288     12.28%     87.80% |     1427860     12.20%    100.00% (Unspecified)
system.caches.L1Cache_Controller.M.Store::total     11707319                       (Unspecified)
system.caches.L1Cache_Controller.M.Inv   |        1463     22.51%     22.51% |         437      6.72%     29.23% |        1647     25.34%     54.57% |         442      6.80%     61.37% |         520      8.00%     69.37% |         329      5.06%     74.43% |         342      5.26%     79.69% |        1320     20.31%    100.00% (Unspecified)
system.caches.L1Cache_Controller.M.Inv::total         6500                       (Unspecified)
system.caches.L1Cache_Controller.M.L1_Replacement |       78344     12.22%     12.22% |       75405     11.76%     23.99% |       74088     11.56%     35.55% |       75431     11.77%     47.32% |      111779     17.44%     64.76% |       75984     11.86%     76.61% |       75962     11.85%     88.46% |       73937     11.54%    100.00% (Unspecified)
system.caches.L1Cache_Controller.M.L1_Replacement::total       640930                       (Unspecified)
system.caches.L1Cache_Controller.M.Fwd_GETX |        1070     13.91%     13.91% |        1024     13.32%     27.23% |         860     11.18%     38.41% |         880     11.44%     49.86% |         917     11.92%     61.78% |         988     12.85%     74.63% |         947     12.31%     86.94% |        1004     13.06%    100.00% (Unspecified)
system.caches.L1Cache_Controller.M.Fwd_GETX::total         7690                       (Unspecified)
system.caches.L1Cache_Controller.M.Fwd_GETS |        1079     16.75%     16.75% |         733     11.38%     28.12% |         738     11.45%     39.58% |         749     11.63%     51.20% |         914     14.19%     65.39% |         757     11.75%     77.14% |         748     11.61%     88.75% |         725     11.25%    100.00% (Unspecified)
system.caches.L1Cache_Controller.M.Fwd_GETS::total         6443                       (Unspecified)
system.caches.L1Cache_Controller.IS.Inv  |           0      0.00%      0.00% |          30     29.70%     29.70% |          28     27.72%     57.43% |          32     31.68%     89.11% |           4      3.96%     93.07% |           2      1.98%     95.05% |           2      1.98%     97.03% |           3      2.97%    100.00% (Unspecified)
system.caches.L1Cache_Controller.IS.Inv::total          101                       (Unspecified)
system.caches.L1Cache_Controller.IS.Data_Exclusive |      425663     12.45%     12.45% |      426774     12.49%     24.94% |      425212     12.44%     37.38% |      426387     12.47%     49.85% |      431241     12.62%     62.47% |      427993     12.52%     74.99% |      428337     12.53%     87.52% |      426573     12.48%    100.00% (Unspecified)
system.caches.L1Cache_Controller.IS.Data_Exclusive::total      3418180                       (Unspecified)
system.caches.L1Cache_Controller.IS.DataS_fromL1 |        5375     12.09%     12.09% |        6277     14.12%     26.20% |        5789     13.02%     39.22% |        5370     12.08%     51.30% |        5478     12.32%     63.62% |        5495     12.36%     75.98% |        5330     11.99%     87.97% |        5351     12.03%    100.00% (Unspecified)
system.caches.L1Cache_Controller.IS.DataS_fromL1::total        44465                       (Unspecified)
system.caches.L1Cache_Controller.IS.Data_all_Acks |      806680     12.48%     12.48% |      805060     12.45%     24.93% |      804668     12.44%     37.37% |      805197     12.45%     49.82% |      812438     12.56%     62.39% |      810234     12.53%     74.92% |      812063     12.56%     87.47% |      810005     12.53%    100.00% (Unspecified)
system.caches.L1Cache_Controller.IS.Data_all_Acks::total      6466345                       (Unspecified)
system.caches.L1Cache_Controller.IM.Data |          43      0.64%      0.64% |           0      0.00%      0.64% |           3      0.04%      0.68% |           1      0.01%      0.70% |        6668     99.18%     99.88% |           2      0.03%     99.91% |           3      0.04%     99.96% |           3      0.04%    100.00% (Unspecified)
system.caches.L1Cache_Controller.IM.Data::total         6723                       (Unspecified)
system.caches.L1Cache_Controller.IM.Data_all_Acks |       34077     11.40%     11.40% |       34500     11.54%     22.93% |       33544     11.22%     34.15% |       34396     11.50%     45.65% |       59645     19.95%     65.60% |       34769     11.63%     77.23% |       34506     11.54%     88.77% |       33585     11.23%    100.00% (Unspecified)
system.caches.L1Cache_Controller.IM.Data_all_Acks::total       299022                       (Unspecified)
system.caches.L1Cache_Controller.SM.Inv  |           0      0.00%      0.00% |           1     12.50%     12.50% |           1     12.50%     25.00% |           0      0.00%     25.00% |           0      0.00%     25.00% |           2     25.00%     50.00% |           2     25.00%     75.00% |           2     25.00%    100.00% (Unspecified)
system.caches.L1Cache_Controller.SM.Inv::total            8                       (Unspecified)
system.caches.L1Cache_Controller.SM.Ack  |        1384      2.45%      2.45% |         761      1.35%      3.80% |         624      1.10%      4.90% |         636      1.13%      6.03% |       51101     90.48%     96.51% |         668      1.18%     97.69% |         612      1.08%     98.77% |         693      1.23%    100.00% (Unspecified)
system.caches.L1Cache_Controller.SM.Ack::total        56479                       (Unspecified)
system.caches.L1Cache_Controller.SM.Ack_all |         890      6.55%      6.55% |         714      5.25%     11.80% |         598      4.40%     16.20% |         603      4.44%     20.64% |        8921     65.63%     86.26% |         633      4.66%     90.92% |         584      4.30%     95.22% |         650      4.78%    100.00% (Unspecified)
system.caches.L1Cache_Controller.SM.Ack_all::total        13593                       (Unspecified)
system.caches.L1Cache_Controller.IS_I.Data_Exclusive |           0      0.00%      0.00% |           0      0.00%      0.00% |           0      0.00%      0.00% |           0      0.00%      0.00% |           0      0.00%      0.00% |           0      0.00%      0.00% |           0      0.00%      0.00% |           1    100.00%    100.00% (Unspecified)
system.caches.L1Cache_Controller.IS_I.Data_Exclusive::total            1                       (Unspecified)
system.caches.L1Cache_Controller.IS_I.Data_all_Acks |           0      0.00%      0.00% |          30     30.00%     30.00% |          28     28.00%     58.00% |          32     32.00%     90.00% |           4      4.00%     94.00% |           2      2.00%     96.00% |           2      2.00%     98.00% |           2      2.00%    100.00% (Unspecified)
system.caches.L1Cache_Controller.IS_I.Data_all_Acks::total          100                       (Unspecified)
system.caches.L1Cache_Controller.M_I.Inv |           0      0.00%      0.00% |           0      0.00%      0.00% |           0      0.00%      0.00% |           2     66.67%     66.67% |           0      0.00%     66.67% |           1     33.33%    100.00% |           0      0.00%    100.00% |           0      0.00%    100.00% (Unspecified)
system.caches.L1Cache_Controller.M_I.Inv::total            3                       (Unspecified)
system.caches.L1Cache_Controller.M_I.Fwd_GETS |           0      0.00%      0.00% |           1     50.00%     50.00% |           0      0.00%     50.00% |           0      0.00%     50.00% |           0      0.00%     50.00% |           0      0.00%     50.00% |           1     50.00%    100.00% |           0      0.00%    100.00% (Unspecified)
system.caches.L1Cache_Controller.M_I.Fwd_GETS::total            2                       (Unspecified)
system.caches.L1Cache_Controller.M_I.WB_Ack |      450193     12.37%     12.37% |      450449     12.37%     24.74% |      447439     12.29%     37.03% |      450376     12.37%     49.40% |      488633     13.42%     62.83% |      452293     12.42%     75.25% |      452501     12.43%     87.68% |      448362     12.32%    100.00% (Unspecified)
system.caches.L1Cache_Controller.M_I.WB_Ack::total      3640246                       (Unspecified)
system.caches.L1Cache_Controller.SINK_WB_ACK.WB_Ack |           0      0.00%      0.00% |           1     20.00%     20.00% |           0      0.00%     20.00% |           2     40.00%     60.00% |           0      0.00%     60.00% |           1     20.00%     80.00% |           1     20.00%    100.00% |           0      0.00%    100.00% (Unspecified)
system.caches.L1Cache_Controller.SINK_WB_ACK.WB_Ack::total            5                       (Unspecified)
system.caches.Directory_Controller.Fetch |       10245      0.28%      0.28% |     3667988     99.72%    100.00% (Unspecified)
system.caches.Directory_Controller.Fetch::total      3678233                       (Unspecified)
system.caches.Directory_Controller.Data  |         613      0.09%      0.09% |      673737     99.91%    100.00% (Unspecified)
system.caches.Directory_Controller.Data::total       674350                       (Unspecified)
system.caches.Directory_Controller.Memory_Data |       10245      0.28%      0.28% |     3667980     99.72%    100.00% (Unspecified)
system.caches.Directory_Controller.Memory_Data::total      3678225                       (Unspecified)
system.caches.Directory_Controller.Memory_Ack |         613      0.09%      0.09% |      673737     99.91%    100.00% (Unspecified)
system.caches.Directory_Controller.Memory_Ack::total       674350                       (Unspecified)
system.caches.Directory_Controller.CleanReplacement |        9598      0.32%      0.32% |     2994285     99.68%    100.00% (Unspecified)
system.caches.Directory_Controller.CleanReplacement::total      3003883                       (Unspecified)
system.caches.Directory_Controller.I.Fetch |       10245      0.28%      0.28% |     3667988     99.72%    100.00% (Unspecified)
system.caches.Directory_Controller.I.Fetch::total      3678233                       (Unspecified)
system.caches.Directory_Controller.M.Data |         613      0.09%      0.09% |      673737     99.91%    100.00% (Unspecified)
system.caches.Directory_Controller.M.Data::total       674350                       (Unspecified)
system.caches.Directory_Controller.M.CleanReplacement |        9598      0.32%      0.32% |     2994285     99.68%    100.00% (Unspecified)
system.caches.Directory_Controller.M.CleanReplacement::total      3003883                       (Unspecified)
system.caches.Directory_Controller.IM.Memory_Data |       10245      0.28%      0.28% |     3667980     99.72%    100.00% (Unspecified)
system.caches.Directory_Controller.IM.Memory_Data::total      3678225                       (Unspecified)
system.caches.Directory_Controller.MI.Memory_Ack |         613      0.09%      0.09% |      673737     99.91%    100.00% (Unspecified)
system.caches.Directory_Controller.MI.Memory_Ack::total       674350                       (Unspecified)
system.caches.L2Cache_Controller.L1_GET_INSTR |        9460     13.82%     13.82% |        8850     12.93%     26.75% |        8013     11.71%     38.46% |        6253      9.14%     47.60% |        8441     12.33%     59.93% |        9179     13.41%     73.35% |        8776     12.82%     86.17% |        9464     13.83%    100.00% (Unspecified)
system.caches.L2Cache_Controller.L1_GET_INSTR::total        68436                       (Unspecified)
system.caches.L2Cache_Controller.L1_GETS |     1253199     12.71%     12.71% |     1241021     12.58%     25.29% |     1221416     12.38%     37.67% |     1214888     12.32%     49.99% |     1222767     12.40%     62.39% |     1237778     12.55%     74.94% |     1232732     12.50%     87.44% |     1238775     12.56%    100.00% (Unspecified)
system.caches.L2Cache_Controller.L1_GETS::total      9862576                       (Unspecified)
system.caches.L2Cache_Controller.L1_GETX |       37709     12.32%     12.32% |       43333     14.16%     26.48% |       36460     11.91%     38.39% |       37083     12.12%     50.50% |       36745     12.00%     62.51% |       38656     12.63%     75.14% |       36985     12.08%     87.22% |       39120     12.78%    100.00% (Unspecified)
system.caches.L2Cache_Controller.L1_GETX::total       306091                       (Unspecified)
system.caches.L2Cache_Controller.L1_UPGRADE |         234      3.37%      3.37% |         262      3.77%      7.14% |         235      3.38%     10.53% |         305      4.39%     14.92% |         330      4.75%     19.67% |         261      3.76%     23.43% |         522      7.52%     30.94% |        4796     69.06%    100.00% (Unspecified)
system.caches.L2Cache_Controller.L1_UPGRADE::total         6945                       (Unspecified)
system.caches.L2Cache_Controller.L1_PUTX |      451425     12.40%     12.40% |      455309     12.51%     24.91% |      454175     12.48%     37.39% |      456545     12.54%     49.93% |      454241     12.48%     62.40% |      456228     12.53%     74.94% |      455094     12.50%     87.44% |      457233     12.56%    100.00% (Unspecified)
system.caches.L2Cache_Controller.L1_PUTX::total      3640250                       (Unspecified)
system.caches.L2Cache_Controller.L1_PUTX_old |           4     66.67%     66.67% |           0      0.00%     66.67% |           0      0.00%     66.67% |           2     33.33%    100.00% |           0      0.00%    100.00% |           0      0.00%    100.00% |           0      0.00%    100.00% |           0      0.00%    100.00% (Unspecified)
system.caches.L2Cache_Controller.L1_PUTX_old::total            6                       (Unspecified)
system.caches.L2Cache_Controller.L2_Replacement |       83844     12.55%     12.55% |       83218     12.46%     25.01% |       82853     12.40%     37.41% |       83244     12.46%     49.87% |       83103     12.44%     62.31% |       84272     12.61%     74.92% |       83456     12.49%     87.42% |       84073     12.58%    100.00% (Unspecified)
system.caches.L2Cache_Controller.L2_Replacement::total       668063                       (Unspecified)
system.caches.L2Cache_Controller.L2_Replacement_clean |      376606     12.51%     12.51% |      377058     12.53%     25.04% |      375940     12.49%     37.53% |      376333     12.50%     50.03% |      375897     12.49%     62.52% |      376381     12.50%     75.02% |      376110     12.49%     87.51% |      375845     12.49%    100.00% (Unspecified)
system.caches.L2Cache_Controller.L2_Replacement_clean::total      3010170                       (Unspecified)
system.caches.L2Cache_Controller.Mem_Data |      460449     12.52%     12.52% |      460275     12.51%     25.03% |      458792     12.47%     37.50% |      459575     12.49%     50.00% |      459000     12.48%     62.48% |      460650     12.52%     75.00% |      459566     12.49%     87.50% |      459918     12.50%    100.00% (Unspecified)
system.caches.L2Cache_Controller.Mem_Data::total      3678225                       (Unspecified)
system.caches.L2Cache_Controller.Mem_Ack |      460450     12.52%     12.52% |      460276     12.51%     25.03% |      458793     12.47%     37.50% |      459577     12.49%     50.00% |      459000     12.48%     62.48% |      460653     12.52%     75.00% |      459566     12.49%     87.50% |      459918     12.50%    100.00% (Unspecified)
system.caches.L2Cache_Controller.Mem_Ack::total      3678233                       (Unspecified)
system.caches.L2Cache_Controller.WB_Data |        1492     11.53%     11.53% |        1140      8.81%     20.33% |         968      7.48%     27.81% |        1125      8.69%     36.50% |        1148      8.87%     45.37% |        1120      8.65%     54.03% |        1314     10.15%     64.18% |        4637     35.82%    100.00% (Unspecified)
system.caches.L2Cache_Controller.WB_Data::total        12944                       (Unspecified)
system.caches.L2Cache_Controller.WB_Data_clean |        8745     23.00%     23.00% |        3987     10.49%     33.48% |        4097     10.77%     44.26% |        3973     10.45%     54.71% |        3922     10.31%     65.02% |        4101     10.79%     75.81% |        4003     10.53%     86.33% |        5196     13.67%    100.00% (Unspecified)
system.caches.L2Cache_Controller.WB_Data_clean::total        38024                       (Unspecified)
system.caches.L2Cache_Controller.Ack     |       24493     16.74%     16.74% |       18368     12.56%     29.30% |       17744     12.13%     41.43% |       15219     10.40%     51.83% |       16860     11.53%     63.36% |       17883     12.23%     75.59% |       17097     11.69%     87.27% |       18616     12.73%    100.00% (Unspecified)
system.caches.L2Cache_Controller.Ack::total       146280                       (Unspecified)
system.caches.L2Cache_Controller.Ack_all |       11577     19.54%     19.54% |        7020     11.85%     31.39% |        6745     11.39%     42.78% |        6758     11.41%     54.18% |        6587     11.12%     65.30% |        6829     11.53%     76.83% |        6714     11.33%     88.16% |        7013     11.84%    100.00% (Unspecified)
system.caches.L2Cache_Controller.Ack_all::total        59243                       (Unspecified)
system.caches.L2Cache_Controller.Unblock |        9141     20.56%     20.56% |        4321      9.72%     30.28% |        4426      9.95%     40.23% |        4342      9.76%     49.99% |        4328      9.73%     59.73% |        4403      9.90%     69.63% |        4594     10.33%     79.96% |        8910     20.04%    100.00% (Unspecified)
system.caches.L2Cache_Controller.Unblock::total        44465                       (Unspecified)
system.caches.L2Cache_Controller.Exclusive_Unblock |      465441     12.48%     12.48% |      470802     12.62%     25.09% |      463047     12.41%     37.51% |      466316     12.50%     50.01% |      463318     12.42%     62.42% |      466102     12.49%     74.92% |      464481     12.45%     87.37% |      471289     12.63%    100.00% (Unspecified)
system.caches.L2Cache_Controller.Exclusive_Unblock::total      3730796                       (Unspecified)
system.caches.L2Cache_Controller.NP.L1_GET_INSTR |        1255     13.36%     13.36% |        1285     13.68%     27.04% |        1139     12.13%     39.17% |         931      9.91%     49.08% |        1131     12.04%     61.13% |        1202     12.80%     73.92% |        1137     12.11%     86.03% |        1312     13.97%    100.00% (Unspecified)
system.caches.L2Cache_Controller.NP.L1_GET_INSTR::total         9392                       (Unspecified)
system.caches.L2Cache_Controller.NP.L1_GETS |      423720     12.50%     12.50% |      424171     12.52%     25.02% |      423290     12.49%     37.51% |      424039     12.51%     50.02% |      423181     12.49%     62.51% |      423770     12.50%     75.01% |      423573     12.50%     87.51% |      423343     12.49%    100.00% (Unspecified)
system.caches.L2Cache_Controller.NP.L1_GETS::total      3389087                       (Unspecified)
system.caches.L2Cache_Controller.NP.L1_GETX |       35475     12.68%     12.68% |       34820     12.45%     25.13% |       34364     12.28%     37.41% |       34607     12.37%     49.78% |       34688     12.40%     62.18% |       35681     12.75%     74.94% |       34856     12.46%     87.39% |       35263     12.61%    100.00% (Unspecified)
system.caches.L2Cache_Controller.NP.L1_GETX::total       279754                       (Unspecified)
system.caches.L2Cache_Controller.NP.L1_PUTX_old |           2     66.67%     66.67% |           0      0.00%     66.67% |           0      0.00%     66.67% |           1     33.33%    100.00% |           0      0.00%    100.00% |           0      0.00%    100.00% |           0      0.00%    100.00% |           0      0.00%    100.00% (Unspecified)
system.caches.L2Cache_Controller.NP.L1_PUTX_old::total            3                       (Unspecified)
system.caches.L2Cache_Controller.SS.L1_GET_INSTR |        5932     13.64%     13.64% |        5434     12.50%     26.14% |        5209     11.98%     38.12% |        3788      8.71%     46.83% |        5348     12.30%     59.13% |        5902     13.57%     72.70% |        5674     13.05%     85.75% |        6196     14.25%    100.00% (Unspecified)
system.caches.L2Cache_Controller.SS.L1_GET_INSTR::total        43483                       (Unspecified)
system.caches.L2Cache_Controller.SS.L1_GETS |      814352     12.74%     12.74% |      807705     12.64%     25.38% |      789182     12.35%     37.74% |      780730     12.22%     49.95% |      791436     12.39%     62.34% |      805395     12.60%     74.94% |      799952     12.52%     87.46% |      801117     12.54%    100.00% (Unspecified)
system.caches.L2Cache_Controller.SS.L1_GETS::total      6389869                       (Unspecified)
system.caches.L2Cache_Controller.SS.L1_GETX |         875     13.01%     13.01% |         822     12.22%     25.23% |         848     12.61%     37.84% |         837     12.45%     50.29% |         837     12.45%     62.74% |         819     12.18%     74.91% |         852     12.67%     87.58% |         835     12.42%    100.00% (Unspecified)
system.caches.L2Cache_Controller.SS.L1_GETX::total         6725                       (Unspecified)
system.caches.L2Cache_Controller.SS.L1_UPGRADE |         234      3.41%      3.41% |         262      3.81%      7.22% |         235      3.42%     10.64% |         298      4.34%     14.98% |         327      4.76%     19.74% |         261      3.80%     23.54% |         457      6.65%     30.19% |        4796     69.81%    100.00% (Unspecified)
system.caches.L2Cache_Controller.SS.L1_UPGRADE::total         6870                       (Unspecified)
system.caches.L2Cache_Controller.SS.L1_PUTX |           0      0.00%      0.00% |           1     50.00%     50.00% |           0      0.00%     50.00% |           0      0.00%     50.00% |           0      0.00%     50.00% |           0      0.00%     50.00% |           0      0.00%     50.00% |           1     50.00%    100.00% (Unspecified)
system.caches.L2Cache_Controller.SS.L1_PUTX::total            2                       (Unspecified)
system.caches.L2Cache_Controller.SS.L2_Replacement |         256     14.00%     14.00% |         240     13.12%     27.12% |         202     11.04%     38.16% |         207     11.32%     49.48% |         217     11.86%     61.34% |         193     10.55%     71.90% |         227     12.41%     84.31% |         287     15.69%    100.00% (Unspecified)
system.caches.L2Cache_Controller.SS.L2_Replacement::total         1829                       (Unspecified)
system.caches.L2Cache_Controller.SS.L2_Replacement_clean |        8461     25.14%     25.14% |        3777     11.22%     36.36% |        3755     11.16%     47.52% |        3306      9.82%     57.35% |        3428     10.19%     67.53% |        3669     10.90%     78.43% |        3484     10.35%     88.79% |        3774     11.21%    100.00% (Unspecified)
system.caches.L2Cache_Controller.SS.L2_Replacement_clean::total        33654                       (Unspecified)
system.caches.L2Cache_Controller.M.L1_GET_INSTR |           1      5.26%      5.26% |           4     21.05%     26.32% |           4     21.05%     47.37% |           3     15.79%     63.16% |           2     10.53%     73.68% |           3     15.79%     89.47% |           1      5.26%     94.74% |           1      5.26%    100.00% (Unspecified)
system.caches.L2Cache_Controller.M.L1_GET_INSTR::total           19                       (Unspecified)
system.caches.L2Cache_Controller.M.L1_GETS |        4287     13.64%     13.64% |        3550     11.29%     24.93% |        3430     10.91%     35.84% |        5142     16.36%     52.20% |        3283     10.44%     62.64% |        3671     11.68%     74.32% |        3621     11.52%     85.84% |        4451     14.16%    100.00% (Unspecified)
system.caches.L2Cache_Controller.M.L1_GETS::total        31435                       (Unspecified)
system.caches.L2Cache_Controller.M.L1_GETX |        1294     11.24%     11.24% |        1216     10.56%     21.80% |        1221     10.61%     32.41% |        1224     10.63%     43.04% |        1187     10.31%     53.35% |        1496     12.99%     66.34% |        1263     10.97%     77.31% |        2612     22.69%    100.00% (Unspecified)
system.caches.L2Cache_Controller.M.L1_GETX::total        11513                       (Unspecified)
system.caches.L2Cache_Controller.M.L2_Replacement |       83568     12.55%     12.55% |       82958     12.46%     25.00% |       82639     12.41%     37.41% |       83013     12.46%     49.88% |       82872     12.44%     62.32% |       84052     12.62%     74.94% |       83216     12.49%     87.43% |       83693     12.57%    100.00% (Unspecified)
system.caches.L2Cache_Controller.M.L2_Replacement::total       666011                       (Unspecified)
system.caches.L2Cache_Controller.M.L2_Replacement_clean |      364209     12.36%     12.36% |      369492     12.54%     24.90% |      368770     12.52%     37.42% |      369050     12.53%     49.94% |      368799     12.52%     62.46% |      368954     12.52%     74.98% |      368913     12.52%     87.50% |      368289     12.50%    100.00% (Unspecified)
system.caches.L2Cache_Controller.M.L2_Replacement_clean::total      2946476                       (Unspecified)
system.caches.L2Cache_Controller.MT.L1_GETS |        9141     20.56%     20.56% |        4321      9.72%     30.28% |        4426      9.95%     40.23% |        4342      9.76%     49.99% |        4328      9.73%     59.73% |        4403      9.90%     69.63% |        4594     10.33%     79.96% |        8910     20.04%    100.00% (Unspecified)
system.caches.L2Cache_Controller.MT.L1_GETS::total        44465                       (Unspecified)
system.caches.L2Cache_Controller.MT.L1_GETX |          11      0.14%      0.14% |        6326     81.59%     81.74% |          16      0.21%     81.94% |         399      5.15%     87.09% |          23      0.30%     87.39% |         624      8.05%     95.43% |          13      0.17%     95.60% |         341      4.40%    100.00% (Unspecified)
system.caches.L2Cache_Controller.MT.L1_GETX::total         7753                       (Unspecified)
system.caches.L2Cache_Controller.MT.L1_PUTX |      451425     12.40%     12.40% |      455307     12.51%     24.91% |      454175     12.48%     37.39% |      456545     12.54%     49.93% |      454241     12.48%     62.40% |      456228     12.53%     74.94% |      455094     12.50%     87.44% |      457231     12.56%    100.00% (Unspecified)
system.caches.L2Cache_Controller.MT.L1_PUTX::total      3640246                       (Unspecified)
system.caches.L2Cache_Controller.MT.L2_Replacement |          20      8.97%      8.97% |          20      8.97%     17.94% |          12      5.38%     23.32% |          24     10.76%     34.08% |          14      6.28%     40.36% |          27     12.11%     52.47% |          13      5.83%     58.30% |          93     41.70%    100.00% (Unspecified)
system.caches.L2Cache_Controller.MT.L2_Replacement::total          223                       (Unspecified)
system.caches.L2Cache_Controller.MT.L2_Replacement_clean |        3936     13.10%     13.10% |        3789     12.61%     25.72% |        3415     11.37%     37.08% |        3977     13.24%     50.32% |        3670     12.22%     62.54% |        3758     12.51%     75.05% |        3713     12.36%     87.41% |        3782     12.59%    100.00% (Unspecified)
system.caches.L2Cache_Controller.MT.L2_Replacement_clean::total        30040                       (Unspecified)
system.caches.L2Cache_Controller.M_I.L1_GET_INSTR |          27     11.84%     11.84% |           0      0.00%     11.84% |           0      0.00%     11.84% |          40     17.54%     29.39% |          21      9.21%     38.60% |           0      0.00%     38.60% |          71     31.14%     69.74% |          69     30.26%    100.00% (Unspecified)
system.caches.L2Cache_Controller.M_I.L1_GET_INSTR::total          228                       (Unspecified)
system.caches.L2Cache_Controller.M_I.L1_GETS |          68     28.94%     28.94% |          56     23.83%     52.77% |          35     14.89%     67.66% |           4      1.70%     69.36% |           5      2.13%     71.49% |           9      3.83%     75.32% |          13      5.53%     80.85% |          45     19.15%    100.00% (Unspecified)
system.caches.L2Cache_Controller.M_I.L1_GETS::total          235                       (Unspecified)
system.caches.L2Cache_Controller.M_I.L1_GETX |          54     84.38%     84.38% |           1      1.56%     85.94% |           0      0.00%     85.94% |           0      0.00%     85.94% |           6      9.38%     95.31% |           1      1.56%     96.88% |           0      0.00%     96.88% |           2      3.12%    100.00% (Unspecified)
system.caches.L2Cache_Controller.M_I.L1_GETX::total           64                       (Unspecified)
system.caches.L2Cache_Controller.M_I.Mem_Ack |      460450     12.52%     12.52% |      460276     12.51%     25.03% |      458793     12.47%     37.50% |      459577     12.49%     50.00% |      459000     12.48%     62.48% |      460653     12.52%     75.00% |      459566     12.49%     87.50% |      459918     12.50%    100.00% (Unspecified)
system.caches.L2Cache_Controller.M_I.Mem_Ack::total      3678233                       (Unspecified)
system.caches.L2Cache_Controller.MT_I.WB_Data |          20      9.35%      9.35% |          20      9.35%     18.69% |          12      5.61%     24.30% |          18      8.41%     32.71% |          14      6.54%     39.25% |          26     12.15%     51.40% |          12      5.61%     57.01% |          92     42.99%    100.00% (Unspecified)
system.caches.L2Cache_Controller.MT_I.WB_Data::total          214                       (Unspecified)
system.caches.L2Cache_Controller.MT_I.Ack_all |           0      0.00%      0.00% |           0      0.00%      0.00% |           0      0.00%      0.00% |           6     66.67%     66.67% |           0      0.00%     66.67% |           1     11.11%     77.78% |           1     11.11%     88.89% |           1     11.11%    100.00% (Unspecified)
system.caches.L2Cache_Controller.MT_I.Ack_all::total            9                       (Unspecified)
system.caches.L2Cache_Controller.MCT_I.L1_PUTX_old |           2     66.67%     66.67% |           0      0.00%     66.67% |           0      0.00%     66.67% |           1     33.33%    100.00% |           0      0.00%    100.00% |           0      0.00%    100.00% |           0      0.00%    100.00% |           0      0.00%    100.00% (Unspecified)
system.caches.L2Cache_Controller.MCT_I.L1_PUTX_old::total            3                       (Unspecified)
system.caches.L2Cache_Controller.MCT_I.WB_Data |        1075     17.10%     17.10% |         786     12.50%     29.60% |         627      9.97%     39.57% |         737     11.72%     51.30% |         728     11.58%     62.88% |         792     12.60%     75.47% |         711     11.31%     86.78% |         831     13.22%    100.00% (Unspecified)
system.caches.L2Cache_Controller.MCT_I.WB_Data::total         6287                       (Unspecified)
system.caches.L2Cache_Controller.MCT_I.WB_Data_clean |           1     50.00%     50.00% |           0      0.00%     50.00% |           0      0.00%     50.00% |           1     50.00%    100.00% |           0      0.00%    100.00% |           0      0.00%    100.00% |           0      0.00%    100.00% |           0      0.00%    100.00% (Unspecified)
system.caches.L2Cache_Controller.MCT_I.WB_Data_clean::total            2                       (Unspecified)
system.caches.L2Cache_Controller.MCT_I.Ack_all |        2860     12.04%     12.04% |        3003     12.64%     24.69% |        2788     11.74%     36.42% |        3239     13.64%     50.06% |        2942     12.39%     62.45% |        2966     12.49%     74.94% |        3002     12.64%     87.58% |        2951     12.42%    100.00% (Unspecified)
system.caches.L2Cache_Controller.MCT_I.Ack_all::total        23751                       (Unspecified)
system.caches.L2Cache_Controller.I_I.L1_GET_INSTR |           0      0.00%      0.00% |           0      0.00%      0.00% |           0      0.00%      0.00% |           0      0.00%      0.00% |           0      0.00%      0.00% |           0      0.00%      0.00% |           0      0.00%      0.00% |           1    100.00%    100.00% (Unspecified)
system.caches.L2Cache_Controller.I_I.L1_GET_INSTR::total            1                       (Unspecified)
system.caches.L2Cache_Controller.I_I.L1_GETS |           1     25.00%     25.00% |           1     25.00%     50.00% |           0      0.00%     50.00% |           0      0.00%     50.00% |           1     25.00%     75.00% |           1     25.00%    100.00% |           0      0.00%    100.00% |           0      0.00%    100.00% (Unspecified)
system.caches.L2Cache_Controller.I_I.L1_GETS::total            4                       (Unspecified)
system.caches.L2Cache_Controller.I_I.Ack |       22913     16.90%     16.90% |       16905     12.47%     29.36% |       16538     12.20%     41.56% |       13955     10.29%     51.85% |       15631     11.53%     63.38% |       16745     12.35%     75.72% |       15722     11.59%     87.32% |       17198     12.68%    100.00% (Unspecified)
system.caches.L2Cache_Controller.I_I.Ack::total       135607                       (Unspecified)
system.caches.L2Cache_Controller.I_I.Ack_all |        8461     25.14%     25.14% |        3777     11.22%     36.36% |        3755     11.16%     47.52% |        3306      9.82%     57.35% |        3428     10.19%     67.53% |        3669     10.90%     78.43% |        3484     10.35%     88.79% |        3774     11.21%    100.00% (Unspecified)
system.caches.L2Cache_Controller.I_I.Ack_all::total        33654                       (Unspecified)
system.caches.L2Cache_Controller.S_I.Ack |        1580     14.80%     14.80% |        1463     13.71%     28.51% |        1206     11.30%     39.81% |        1264     11.84%     51.65% |        1229     11.52%     63.17% |        1138     10.66%     73.83% |        1375     12.88%     86.71% |        1418     13.29%    100.00% (Unspecified)
system.caches.L2Cache_Controller.S_I.Ack::total        10673                       (Unspecified)
system.caches.L2Cache_Controller.S_I.Ack_all |         256     14.00%     14.00% |         240     13.12%     27.12% |         202     11.04%     38.16% |         207     11.32%     49.48% |         217     11.86%     61.34% |         193     10.55%     71.90% |         227     12.41%     84.31% |         287     15.69%    100.00% (Unspecified)
system.caches.L2Cache_Controller.S_I.Ack_all::total         1829                       (Unspecified)
system.caches.L2Cache_Controller.ISS.L1_GETS |         454     19.46%     19.46% |         364     15.60%     35.06% |         356     15.26%     50.32% |         228      9.77%     60.09% |         208      8.92%     69.01% |         217      9.30%     78.31% |         154      6.60%     84.91% |         352     15.09%    100.00% (Unspecified)
system.caches.L2Cache_Controller.ISS.L1_GETS::total         2333                       (Unspecified)
system.caches.L2Cache_Controller.ISS.L1_GETX |           0      0.00%      0.00% |           0      0.00%      0.00% |           0      0.00%      0.00% |           0      0.00%      0.00% |           0      0.00%      0.00% |           0      0.00%      0.00% |           1    100.00%    100.00% |           0      0.00%    100.00% (Unspecified)
system.caches.L2Cache_Controller.ISS.L1_GETX::total            1                       (Unspecified)
system.caches.L2Cache_Controller.ISS.Mem_Data |      423265     12.50%     12.50% |      423806     12.51%     25.01% |      422933     12.49%     37.50% |      423809     12.51%     50.01% |      422973     12.49%     62.50% |      423550     12.51%     75.01% |      423419     12.50%     87.51% |      422991     12.49%    100.00% (Unspecified)
system.caches.L2Cache_Controller.ISS.Mem_Data::total      3386746                       (Unspecified)
system.caches.L2Cache_Controller.IS.L1_GET_INSTR |        2245     14.66%     14.66% |        2127     13.89%     28.55% |        1661     10.85%     39.40% |        1491      9.74%     49.13% |        1939     12.66%     61.80% |        2072     13.53%     75.33% |        1893     12.36%     87.69% |        1885     12.31%    100.00% (Unspecified)
system.caches.L2Cache_Controller.IS.L1_GET_INSTR::total        15313                       (Unspecified)
system.caches.L2Cache_Controller.IS.L1_GETS |        1021     27.57%     27.57% |         735     19.85%     47.42% |         636     17.18%     64.60% |         316      8.53%     73.13% |         208      5.62%     78.75% |         269      7.26%     86.01% |         104      2.81%     88.82% |         414     11.18%    100.00% (Unspecified)
system.caches.L2Cache_Controller.IS.L1_GETS::total         3703                       (Unspecified)
system.caches.L2Cache_Controller.IS.Mem_Data |        1709     14.58%     14.58% |        1649     14.06%     28.64% |        1495     12.75%     41.39% |        1159      9.88%     51.28% |        1339     11.42%     62.70% |        1419     12.10%     74.80% |        1291     11.01%     85.81% |        1664     14.19%    100.00% (Unspecified)
system.caches.L2Cache_Controller.IS.Mem_Data::total        11725                       (Unspecified)
system.caches.L2Cache_Controller.IM.L1_GETS |           0      0.00%      0.00% |           0      0.00%      0.00% |           0      0.00%      0.00% |           0      0.00%      0.00% |           0      0.00%      0.00% |           0      0.00%      0.00% |           1    100.00%    100.00% |           0      0.00%    100.00% (Unspecified)
system.caches.L2Cache_Controller.IM.L1_GETS::total            1                       (Unspecified)
system.caches.L2Cache_Controller.IM.L1_GETX |           0      0.00%      0.00% |           7     77.78%     77.78% |           0      0.00%     77.78% |           0      0.00%     77.78% |           2     22.22%    100.00% |           0      0.00%    100.00% |           0      0.00%    100.00% |           0      0.00%    100.00% (Unspecified)
system.caches.L2Cache_Controller.IM.L1_GETX::total            9                       (Unspecified)
system.caches.L2Cache_Controller.IM.Mem_Data |       35475     12.68%     12.68% |       34820     12.45%     25.13% |       34364     12.28%     37.41% |       34607     12.37%     49.78% |       34688     12.40%     62.18% |       35681     12.75%     74.94% |       34856     12.46%     87.39% |       35263     12.61%    100.00% (Unspecified)
system.caches.L2Cache_Controller.IM.Mem_Data::total       279754                       (Unspecified)
system.caches.L2Cache_Controller.SS_MB.L1_GETS |          28      5.67%      5.67% |           0      0.00%      5.67% |           0      0.00%      5.67% |          17      3.44%      9.11% |          53     10.73%     19.84% |           0      0.00%     19.84% |         366     74.09%     93.93% |          30      6.07%    100.00% (Unspecified)
system.caches.L2Cache_Controller.SS_MB.L1_GETS::total          494                       (Unspecified)
system.caches.L2Cache_Controller.SS_MB.L1_GETX |           0      0.00%      0.00% |           6     27.27%     27.27% |           1      4.55%     31.82% |           3     13.64%     45.45% |           0      0.00%     45.45% |           0      0.00%     45.45% |           0      0.00%     45.45% |          12     54.55%    100.00% (Unspecified)
system.caches.L2Cache_Controller.SS_MB.L1_GETX::total           22                       (Unspecified)
system.caches.L2Cache_Controller.SS_MB.L1_UPGRADE |           0      0.00%      0.00% |           0      0.00%      0.00% |           0      0.00%      0.00% |           6     75.00%     75.00% |           2     25.00%    100.00% |           0      0.00%    100.00% |           0      0.00%    100.00% |           0      0.00%    100.00% (Unspecified)
system.caches.L2Cache_Controller.SS_MB.L1_UPGRADE::total            8                       (Unspecified)
system.caches.L2Cache_Controller.SS_MB.Exclusive_Unblock |        1109      8.16%      8.16% |        1084      7.97%     16.13% |        1083      7.97%     24.10% |        1135      8.35%     32.45% |        1164      8.56%     41.01% |        1080      7.94%     48.95% |        1309      9.63%     58.58% |        5631     41.42%    100.00% (Unspecified)
system.caches.L2Cache_Controller.SS_MB.Exclusive_Unblock::total        13595                       (Unspecified)
system.caches.L2Cache_Controller.MT_MB.L1_GETS |          11      8.21%      8.21% |          14     10.45%     18.66% |          23     17.16%     35.82% |          34     25.37%     61.19% |           8      5.97%     67.16% |          16     11.94%     79.10% |           2      1.49%     80.60% |          26     19.40%    100.00% (Unspecified)
system.caches.L2Cache_Controller.MT_MB.L1_GETS::total          134                       (Unspecified)
system.caches.L2Cache_Controller.MT_MB.L1_GETX |           0      0.00%      0.00% |         135     55.56%     55.56% |          10      4.12%     59.67% |           7      2.88%     62.55% |           1      0.41%     62.96% |          35     14.40%     77.37% |           0      0.00%     77.37% |          55     22.63%    100.00% (Unspecified)
system.caches.L2Cache_Controller.MT_MB.L1_GETX::total          243                       (Unspecified)
system.caches.L2Cache_Controller.MT_MB.Exclusive_Unblock |      464332     12.49%     12.49% |      469718     12.64%     25.13% |      461964     12.43%     37.56% |      465181     12.51%     50.07% |      462154     12.43%     62.50% |      465022     12.51%     75.01% |      463172     12.46%     87.47% |      465658     12.53%    100.00% (Unspecified)
system.caches.L2Cache_Controller.MT_MB.Exclusive_Unblock::total      3717201                       (Unspecified)
system.caches.L2Cache_Controller.MT_IIB.L1_GETS |          95     12.73%     12.73% |          87     11.66%     24.40% |          35      4.69%     29.09% |          30      4.02%     33.11% |          54      7.24%     40.35% |          24      3.22%     43.57% |         341     45.71%     89.28% |          80     10.72%    100.00% (Unspecified)
system.caches.L2Cache_Controller.MT_IIB.L1_GETS::total          746                       (Unspecified)
system.caches.L2Cache_Controller.MT_IIB.L1_GETX |           0      0.00%      0.00% |           0      0.00%      0.00% |           0      0.00%      0.00% |           6     85.71%     85.71% |           1     14.29%    100.00% |           0      0.00%    100.00% |           0      0.00%    100.00% |           0      0.00%    100.00% (Unspecified)
system.caches.L2Cache_Controller.MT_IIB.L1_GETX::total            7                       (Unspecified)
system.caches.L2Cache_Controller.MT_IIB.L1_PUTX |           0      0.00%      0.00% |           1     50.00%     50.00% |           0      0.00%     50.00% |           0      0.00%     50.00% |           0      0.00%     50.00% |           0      0.00%     50.00% |           0      0.00%     50.00% |           1     50.00%    100.00% (Unspecified)
system.caches.L2Cache_Controller.MT_IIB.L1_PUTX::total            2                       (Unspecified)
system.caches.L2Cache_Controller.MT_IIB.WB_Data |         397      6.19%      6.19% |         334      5.21%     11.40% |         329      5.13%     16.53% |         355      5.53%     22.06% |         394      6.14%     28.20% |         301      4.69%     32.90% |         590      9.20%     42.10% |        3714     57.90%    100.00% (Unspecified)
system.caches.L2Cache_Controller.MT_IIB.WB_Data::total         6414                       (Unspecified)
system.caches.L2Cache_Controller.MT_IIB.WB_Data_clean |        8743     23.00%     23.00% |        3986     10.48%     33.48% |        4097     10.78%     44.26% |        3972     10.45%     54.71% |        3921     10.31%     65.02% |        4101     10.79%     75.81% |        4003     10.53%     86.34% |        5194     13.66%    100.00% (Unspecified)
system.caches.L2Cache_Controller.MT_IIB.WB_Data_clean::total        38017                       (Unspecified)
system.caches.L2Cache_Controller.MT_IIB.Unblock |           1      2.94%      2.94% |           1      2.94%      5.88% |           0      0.00%      5.88% |          15     44.12%     50.00% |          13     38.24%     88.24% |           1      2.94%     91.18% |           1      2.94%     94.12% |           2      5.88%    100.00% (Unspecified)
system.caches.L2Cache_Controller.MT_IIB.Unblock::total           34                       (Unspecified)
system.caches.L2Cache_Controller.MT_IB.WB_Data |           0      0.00%      0.00% |           0      0.00%      0.00% |           0      0.00%      0.00% |          15     51.72%     51.72% |          12     41.38%     93.10% |           1      3.45%     96.55% |           1      3.45%    100.00% |           0      0.00%    100.00% (Unspecified)
system.caches.L2Cache_Controller.MT_IB.WB_Data::total           29                       (Unspecified)
system.caches.L2Cache_Controller.MT_IB.WB_Data_clean |           1     20.00%     20.00% |           1     20.00%     40.00% |           0      0.00%     40.00% |           0      0.00%     40.00% |           1     20.00%     60.00% |           0      0.00%     60.00% |           0      0.00%     60.00% |           2     40.00%    100.00% (Unspecified)
system.caches.L2Cache_Controller.MT_IB.WB_Data_clean::total            5                       (Unspecified)
system.caches.L2Cache_Controller.MT_SB.L1_GETS |          21     30.00%     30.00% |          17     24.29%     54.29% |           3      4.29%     58.57% |           6      8.57%     67.14% |           2      2.86%     70.00% |           3      4.29%     74.29% |          11     15.71%     90.00% |           7     10.00%    100.00% (Unspecified)
system.caches.L2Cache_Controller.MT_SB.L1_GETS::total           70                       (Unspecified)
system.caches.L2Cache_Controller.MT_SB.L1_UPGRADE |           0      0.00%      0.00% |           0      0.00%      0.00% |           0      0.00%      0.00% |           1      1.49%      1.49% |           1      1.49%      2.99% |           0      0.00%      2.99% |          65     97.01%    100.00% |           0      0.00%    100.00% (Unspecified)
system.caches.L2Cache_Controller.MT_SB.L1_UPGRADE::total           67                       (Unspecified)
system.caches.L2Cache_Controller.MT_SB.Unblock |        9140     20.57%     20.57% |        4320      9.72%     30.29% |        4426      9.96%     40.26% |        4327      9.74%     49.99% |        4315      9.71%     59.71% |        4402      9.91%     69.61% |        4593     10.34%     79.95% |        8908     20.05%    100.00% (Unspecified)
system.caches.L2Cache_Controller.MT_SB.Unblock::total        44431                       (Unspecified)
system.caches.RequestType.LD.latency_hist_seqr::bucket_size          512                       (Unspecified)
system.caches.RequestType.LD.latency_hist_seqr::max_bucket         5119                       (Unspecified)
system.caches.RequestType.LD.latency_hist_seqr::samples     96958405                       (Unspecified)
system.caches.RequestType.LD.latency_hist_seqr::mean    17.281354                       (Unspecified)
system.caches.RequestType.LD.latency_hist_seqr::gmean     1.469970                       (Unspecified)
system.caches.RequestType.LD.latency_hist_seqr::stdev    93.169045                       (Unspecified)
system.caches.RequestType.LD.latency_hist_seqr |    96287073     99.31%     99.31% |      617964      0.64%     99.94% |        5922      0.01%     99.95% |       13802      0.01%     99.97% |       30436      0.03%    100.00% |        3117      0.00%    100.00% |          81      0.00%    100.00% |          10      0.00%    100.00% |           0      0.00%    100.00% |           0      0.00%    100.00% (Unspecified)
system.caches.RequestType.LD.latency_hist_seqr::total     96958405                       (Unspecified)
system.caches.RequestType.LD.hit_latency_hist_seqr::bucket_size            1                       (Unspecified)
system.caches.RequestType.LD.hit_latency_hist_seqr::max_bucket            9                       (Unspecified)
system.caches.RequestType.LD.hit_latency_hist_seqr::samples     87097521                       (Unspecified)
system.caches.RequestType.LD.hit_latency_hist_seqr::mean     1.000510                       (Unspecified)
system.caches.RequestType.LD.hit_latency_hist_seqr::gmean     1.000354                       (Unspecified)
system.caches.RequestType.LD.hit_latency_hist_seqr::stdev     0.022575                       (Unspecified)
system.caches.RequestType.LD.hit_latency_hist_seqr |           0      0.00%      0.00% |    87053109     99.95%     99.95% |       44412      0.05%    100.00% |           0      0.00%    100.00% |           0      0.00%    100.00% |           0      0.00%    100.00% |           0      0.00%    100.00% |           0      0.00%    100.00% |           0      0.00%    100.00% |           0      0.00%    100.00% (Unspecified)
system.caches.RequestType.LD.hit_latency_hist_seqr::total     87097521                       (Unspecified)
system.caches.RequestType.LD.miss_latency_hist_seqr::bucket_size          512                       (Unspecified)
system.caches.RequestType.LD.miss_latency_hist_seqr::max_bucket         5119                       (Unspecified)
system.caches.RequestType.LD.miss_latency_hist_seqr::samples      9860884                       (Unspecified)
system.caches.RequestType.LD.miss_latency_hist_seqr::mean   161.083996                       (Unspecified)
system.caches.RequestType.LD.miss_latency_hist_seqr::gmean    44.027672                       (Unspecified)
system.caches.RequestType.LD.miss_latency_hist_seqr::stdev   249.662602                       (Unspecified)
system.caches.RequestType.LD.miss_latency_hist_seqr |     9189552     93.19%     93.19% |      617964      6.27%     99.46% |        5922      0.06%     99.52% |       13802      0.14%     99.66% |       30436      0.31%     99.97% |        3117      0.03%    100.00% |          81      0.00%    100.00% |          10      0.00%    100.00% |           0      0.00%    100.00% |           0      0.00%    100.00% (Unspecified)
system.caches.RequestType.LD.miss_latency_hist_seqr::total      9860884                       (Unspecified)
system.caches.RequestType.ST.latency_hist_seqr::bucket_size          512                       (Unspecified)
system.caches.RequestType.ST.latency_hist_seqr::max_bucket         5119                       (Unspecified)
system.caches.RequestType.ST.latency_hist_seqr::samples      8914814                       (Unspecified)
system.caches.RequestType.ST.latency_hist_seqr::mean    16.007575                       (Unspecified)
system.caches.RequestType.ST.latency_hist_seqr::gmean     1.215404                       (Unspecified)
system.caches.RequestType.ST.latency_hist_seqr::stdev    98.692074                       (Unspecified)
system.caches.RequestType.ST.latency_hist_seqr |     8827606     99.02%     99.02% |       80236      0.90%     99.92% |        2655      0.03%     99.95% |        1028      0.01%     99.96% |        2526      0.03%     99.99% |         736      0.01%    100.00% |          27      0.00%    100.00% |           0      0.00%    100.00% |           0      0.00%    100.00% |           0      0.00%    100.00% (Unspecified)
system.caches.RequestType.ST.latency_hist_seqr::total      8914814                       (Unspecified)
system.caches.RequestType.ST.hit_latency_hist_seqr::bucket_size           64                       (Unspecified)
system.caches.RequestType.ST.hit_latency_hist_seqr::max_bucket          639                       (Unspecified)
system.caches.RequestType.ST.hit_latency_hist_seqr::samples      8625184                       (Unspecified)
system.caches.RequestType.ST.hit_latency_hist_seqr::mean     1.007479                       (Unspecified)
system.caches.RequestType.ST.hit_latency_hist_seqr::gmean     1.004857                       (Unspecified)
system.caches.RequestType.ST.hit_latency_hist_seqr::stdev     0.420397                       (Unspecified)
system.caches.RequestType.ST.hit_latency_hist_seqr |     8625170    100.00%    100.00% |           0      0.00%    100.00% |           3      0.00%    100.00% |           3      0.00%    100.00% |           3      0.00%    100.00% |           2      0.00%    100.00% |           0      0.00%    100.00% |           2      0.00%    100.00% |           1      0.00%    100.00% |           0      0.00%    100.00% (Unspecified)
system.caches.RequestType.ST.hit_latency_hist_seqr::total      8625184                       (Unspecified)
system.caches.RequestType.ST.miss_latency_hist_seqr::bucket_size          512                       (Unspecified)
system.caches.RequestType.ST.miss_latency_hist_seqr::max_bucket         5119                       (Unspecified)
system.caches.RequestType.ST.miss_latency_hist_seqr::samples       289630                       (Unspecified)
system.caches.RequestType.ST.miss_latency_hist_seqr::mean   462.710572                       (Unspecified)
system.caches.RequestType.ST.miss_latency_hist_seqr::gmean   350.784440                       (Unspecified)
system.caches.RequestType.ST.miss_latency_hist_seqr::stdev   305.862747                       (Unspecified)
system.caches.RequestType.ST.miss_latency_hist_seqr |      202423     69.89%     69.89% |       80235     27.70%     97.59% |        2655      0.92%     98.51% |        1028      0.35%     98.86% |        2526      0.87%     99.74% |         736      0.25%     99.99% |          27      0.01%    100.00% |           0      0.00%    100.00% |           0      0.00%    100.00% |           0      0.00%    100.00% (Unspecified)
[...]
system.o3Cpu7.iew.predictedTakenIncorrect       467829                       # Number of branches that were predicted taken incorrectly (Count)
system.o3Cpu7.iew.predictedNotTakenIncorrect       621754                       # Number of branches that were predicted not taken incorrectly (Count)
system.o3Cpu7.iew.branchMispredicts           1089583                       # Number of branch mispredicts detected at execute (Count)
system.o3Cpu7.iew.instsToCommit              87005515                       # Cumulative count of insts sent to commit (Count)
system.o3Cpu7.iew.writebackCount             86653787                       # Cumulative count of insts written-back (Count)
system.o3Cpu7.iew.producerInst               65890691                       # Number of instructions producing a value (Count)
system.o3Cpu7.iew.consumerInst               97244544                       # Number of instructions consuming a value (Count)
system.o3Cpu7.iew.wbRate                     0.501701                       # Insts written-back per cycle ((Count/Cycle))
system.o3Cpu7.iew.wbFanout                   0.677577                       # Average fanout of values written-back ((Count/Count))
system.o3Cpu7.interrupts.clk_domain.clock         3200                       # Clock period in ticks (Tick)
system.o3Cpu7.lsq0.forwLoads                    35401                       # Number of loads that had data forwarded from stores (Count)
system.o3Cpu7.lsq0.squashedLoads              4209929                       # Number of loads squashed (Count)
system.o3Cpu7.lsq0.ignoredResponses               119                       # Number of memory responses ignored because the instruction is squashed (Count)
system.o3Cpu7.lsq0.memOrderViolation              185                       # Number of memory ordering violations (Count)
system.o3Cpu7.lsq0.squashedStores              568167                       # Number of stores squashed (Count)
system.o3Cpu7.lsq0.rescheduledLoads                26                       # Number of loads that were rescheduled (Count)
system.o3Cpu7.lsq0.blockedByCache                 367                       # Number of times an access to memory failed due to the cache being blocked (Count)
system.o3Cpu7.lsq0.loadToUse::samples         9316686                       # Distribution of cycle latency between the first time a load is issued and its completion (Unspecified)
system.o3Cpu7.lsq0.loadToUse::mean          48.188865                       # Distribution of cycle latency between the first time a load is issued and its completion (Unspecified)
system.o3Cpu7.lsq0.loadToUse::stdev        150.318143                       # Distribution of cycle latency between the first time a load is issued and its completion (Unspecified)
system.o3Cpu7.lsq0.loadToUse::0-9             7313955     78.50%     78.50% # Distribution of cycle latency between the first time a load is issued and its completion (Unspecified)
system.o3Cpu7.lsq0.loadToUse::10-19            570445      6.12%     84.63% # Distribution of cycle latency between the first time a load is issued and its completion (Unspecified)
system.o3Cpu7.lsq0.loadToUse::20-29            299222      3.21%     87.84% # Distribution of cycle latency between the first time a load is issued and its completion (Unspecified)
system.o3Cpu7.lsq0.loadToUse::30-39            126319      1.36%     89.19% # Distribution of cycle latency between the first time a load is issued and its completion (Unspecified)
system.o3Cpu7.lsq0.loadToUse::40-49             36096      0.39%     89.58% # Distribution of cycle latency between the first time a load is issued and its completion (Unspecified)
system.o3Cpu7.lsq0.loadToUse::50-59              7882      0.08%     89.67% # Distribution of cycle latency between the first time a load is issued and its completion (Unspecified)
system.o3Cpu7.lsq0.loadToUse::60-69              2081      0.02%     89.69% # Distribution of cycle latency between the first time a load is issued and its completion (Unspecified)
system.o3Cpu7.lsq0.loadToUse::70-79              1828      0.02%     89.71% # Distribution of cycle latency between the first time a load is issued and its completion (Unspecified)
system.o3Cpu7.lsq0.loadToUse::80-89              1708      0.02%     89.73% # Distribution of cycle latency between the first time a load is issued and its completion (Unspecified)
system.o3Cpu7.lsq0.loadToUse::90-99              1587      0.02%     89.74% # Distribution of cycle latency between the first time a load is issued and its completion (Unspecified)
system.o3Cpu7.lsq0.loadToUse::100-109            1718      0.02%     89.76% # Distribution of cycle latency between the first time a load is issued and its completion (Unspecified)
system.o3Cpu7.lsq0.loadToUse::110-119            1748      0.02%     89.78% # Distribution of cycle latency between the first time a load is issued and its completion (Unspecified)
system.o3Cpu7.lsq0.loadToUse::120-129            1955      0.02%     89.80% # Distribution of cycle latency between the first time a load is issued and its completion (Unspecified)
system.o3Cpu7.lsq0.loadToUse::130-139            2195      0.02%     89.83% # Distribution of cycle latency between the first time a load is issued and its completion (Unspecified)
system.o3Cpu7.lsq0.loadToUse::140-149            2563      0.03%     89.85% # Distribution of cycle latency between the first time a load is issued and its completion (Unspecified)
system.o3Cpu7.lsq0.loadToUse::150-159            3022      0.03%     89.89% # Distribution of cycle latency between the first time a load is issued and its completion (Unspecified)
system.o3Cpu7.lsq0.loadToUse::160-169            3756      0.04%     89.93% # Distribution of cycle latency between the first time a load is issued and its completion (Unspecified)
system.o3Cpu7.lsq0.loadToUse::170-179            4423      0.05%     89.97% # Distribution of cycle latency between the first time a load is issued and its completion (Unspecified)
system.o3Cpu7.lsq0.loadToUse::180-189            6168      0.07%     90.04% # Distribution of cycle latency between the first time a load is issued and its completion (Unspecified)
system.o3Cpu7.lsq0.loadToUse::190-199            7990      0.09%     90.12% # Distribution of cycle latency between the first time a load is issued and its completion (Unspecified)
system.o3Cpu7.lsq0.loadToUse::200-209           12954      0.14%     90.26% # Distribution of cycle latency between the first time a load is issued and its completion (Unspecified)
system.o3Cpu7.lsq0.loadToUse::210-219           24407      0.26%     90.53% # Distribution of cycle latency between the first time a load is issued and its completion (Unspecified)
system.o3Cpu7.lsq0.loadToUse::220-229           14350      0.15%     90.68% # Distribution of cycle latency between the first time a load is issued and its completion (Unspecified)
system.o3Cpu7.lsq0.loadToUse::230-239           14312      0.15%     90.83% # Distribution of cycle latency between the first time a load is issued and its completion (Unspecified)
system.o3Cpu7.lsq0.loadToUse::240-249           13681      0.15%     90.98% # Distribution of cycle latency between the first time a load is issued and its completion (Unspecified)
system.o3Cpu7.lsq0.loadToUse::250-259           13904      0.15%     91.13% # Distribution of cycle latency between the first time a load is issued and its completion (Unspecified)
system.o3Cpu7.lsq0.loadToUse::260-269           14672      0.16%     91.29% # Distribution of cycle latency between the first time a load is issued and its completion (Unspecified)
system.o3Cpu7.lsq0.loadToUse::270-279           16117      0.17%     91.46% # Distribution of cycle latency between the first time a load is issued and its completion (Unspecified)
system.o3Cpu7.lsq0.loadToUse::280-289           18955      0.20%     91.66% # Distribution of cycle latency between the first time a load is issued and its completion (Unspecified)
system.o3Cpu7.lsq0.loadToUse::290-299           18250      0.20%     91.86% # Distribution of cycle latency between the first time a load is issued and its completion (Unspecified)
system.o3Cpu7.lsq0.loadToUse::overflows        758423      8.14%    100.00% # Distribution of cycle latency between the first time a load is issued and its completion (Unspecified)
system.o3Cpu7.lsq0.loadToUse::min_value             2                       # Distribution of cycle latency between the first time a load is issued and its completion (Unspecified)
system.o3Cpu7.lsq0.loadToUse::max_value          3652                       # Distribution of cycle latency between the first time a load is issued and its completion (Unspecified)
system.o3Cpu7.lsq0.loadToUse::total           9316686                       # Distribution of cycle latency between the first time a load is issued and its completion (Unspecified)
system.o3Cpu7.mmu.dtb.rdAccesses             13082968                       # TLB accesses on read requests (Count)
system.o3Cpu7.mmu.dtb.wrAccesses              1334564                       # TLB accesses on write requests (Count)
system.o3Cpu7.mmu.dtb.rdMisses                 833233                       # TLB misses on read requests (Count)
system.o3Cpu7.mmu.dtb.wrMisses                    831                       # TLB misses on write requests (Count)
system.o3Cpu7.mmu.dtb.walker.power_state.pwrStateResidencyTicks::UNDEFINED  36459359399                       # Cumulative time (in ticks) in various power states (Tick)
system.o3Cpu7.mmu.itb.rdAccesses                    0                       # TLB accesses on read requests (Count)
system.o3Cpu7.mmu.itb.wrAccesses              7082468                       # TLB accesses on write requests (Count)
system.o3Cpu7.mmu.itb.rdMisses                      0                       # TLB misses on read requests (Count)
system.o3Cpu7.mmu.itb.wrMisses                    247                       # TLB misses on write requests (Count)
system.o3Cpu7.mmu.itb.walker.power_state.pwrStateResidencyTicks::UNDEFINED  36459359399                       # Cumulative time (in ticks) in various power states (Tick)
system.o3Cpu7.power_state.numTransitions            8                       # Number of power state transitions (Count)
system.o3Cpu7.power_state.ticksClkGated::samples            4                       # Distribution of time spent in the clock gated state (Tick)
system.o3Cpu7.power_state.ticksClkGated::mean    226143350                       # Distribution of time spent in the clock gated state (Tick)
system.o3Cpu7.power_state.ticksClkGated::stdev 170570473.999957                       # Distribution of time spent in the clock gated state (Tick)
system.o3Cpu7.power_state.ticksClkGated::1000-5e+10            4    100.00%    100.00% # Distribution of time spent in the clock gated state (Tick)
system.o3Cpu7.power_state.ticksClkGated::min_value     26974400                       # Distribution of time spent in the clock gated state (Tick)
system.o3Cpu7.power_state.ticksClkGated::max_value    374002800                       # Distribution of time spent in the clock gated state (Tick)
system.o3Cpu7.power_state.ticksClkGated::total            4                       # Distribution of time spent in the clock gated state (Tick)
system.o3Cpu7.power_state.pwrStateResidencyTicks::ON  26826149800                       # Cumulative time (in ticks) in various power states (Tick)
system.o3Cpu7.power_state.pwrStateResidencyTicks::CLK_GATED    904573400                       # Cumulative time (in ticks) in various power states (Tick)
system.o3Cpu7.power_state.pwrStateResidencyTicks::OFF   8728636199                       # Cumulative time (in ticks) in various power states (Tick)
system.o3Cpu7.rename.squashCycles             1011873                       # Number of cycles rename is squashing (Cycle)
system.o3Cpu7.rename.idleCycles               7319099                       # Number of cycles rename is idle (Cycle)
system.o3Cpu7.rename.blockCycles            128517237                       # Number of cycles rename is blocking (Cycle)
system.o3Cpu7.rename.serializeStallCycles       226446                       # count of cycles rename stalled for serializing inst (Cycle)
system.o3Cpu7.rename.runCycles               24803958                       # Number of cycles rename is running (Cycle)
system.o3Cpu7.rename.unblockCycles           10645124                       # Number of cycles rename is unblocking (Cycle)
system.o3Cpu7.rename.renamedInsts           100654642                       # Number of instructions processed by rename (Count)
system.o3Cpu7.rename.ROBFullEvents            1599275                       # Number of times rename has blocked due to ROB full (Count)
system.o3Cpu7.rename.IQFullEvents             3225422                       # Number of times rename has blocked due to IQ full (Count)
system.o3Cpu7.rename.LQFullEvents             6664526                       # Number of times rename has blocked due to LQ full (Count)
system.o3Cpu7.rename.SQFullEvents               71061                       # Number of times rename has blocked due to SQ full (Count)
system.o3Cpu7.rename.renamedOperands        216624565                       # Number of destination operands rename has renamed (Count)
system.o3Cpu7.rename.lookups                373010467                       # Number of register rename lookups that rename has made (Count)
system.o3Cpu7.rename.intLookups             125958062                       # Number of integer rename lookups (Count)
system.o3Cpu7.rename.fpLookups                    238                       # Number of floating rename lookups (Count)
system.o3Cpu7.rename.committedMaps          141802375                       # Number of HB maps that are committed (Count)
system.o3Cpu7.rename.undoneMaps              74822025                       # Number of HB maps that are undone due to squashing (Count)
system.o3Cpu7.rename.serializing                 1956                       # count of serializing insts renamed (Count)
system.o3Cpu7.rename.tempSerializing             1975                       # count of temporary serializing insts renamed (Count)
system.o3Cpu7.rename.skidInsts                7732791                       # count of insts added to the skid buffer (Count)
system.o3Cpu7.rob.reads                     247160459                       # The number of ROB reads (Count)
system.o3Cpu7.rob.writes                    198341496                       # The number of ROB writes (Count)
system.o3Cpu7.thread_0.numInsts              41053778                       # Number of Instructions committed (Count)
system.o3Cpu7.thread_0.numOps                67221562                       # Number of Ops committed (Count)
system.o3Cpu7.thread_0.numMemRefs                   0                       # Number of Memory References (Count)
system.pc.bad_addr.power_state.pwrStateResidencyTicks::UNDEFINED  36459359399                       # Cumulative time (in ticks) in various power states (Tick)
system.pc.com_1.power_state.pwrStateResidencyTicks::UNDEFINED  36459359399                       # Cumulative time (in ticks) in various power states (Tick)
system.pc.default_bus.power_state.pwrStateResidencyTicks::UNDEFINED  36459359399                       # Cumulative time (in ticks) in various power states (Tick)
system.pc.empty_isa.power_state.pwrStateResidencyTicks::UNDEFINED  36459359399                       # Cumulative time (in ticks) in various power states (Tick)
system.pc.fake_com_2.power_state.pwrStateResidencyTicks::UNDEFINED  36459359399                       # Cumulative time (in ticks) in various power states (Tick)
system.pc.fake_com_3.power_state.pwrStateResidencyTicks::UNDEFINED  36459359399                       # Cumulative time (in ticks) in various power states (Tick)
system.pc.fake_com_4.power_state.pwrStateResidencyTicks::UNDEFINED  36459359399                       # Cumulative time (in ticks) in various power states (Tick)
system.pc.fake_floppy.power_state.pwrStateResidencyTicks::UNDEFINED  36459359399                       # Cumulative time (in ticks) in various power states (Tick)
system.pc.pci_host.power_state.pwrStateResidencyTicks::UNDEFINED  36459359399                       # Cumulative time (in ticks) in various power states (Tick)
system.pc.south_bridge.cmos.power_state.pwrStateResidencyTicks::UNDEFINED  36459359399                       # Cumulative time (in ticks) in various power states (Tick)
system.pc.south_bridge.dma1.power_state.pwrStateResidencyTicks::UNDEFINED  36459359399                       # Cumulative time (in ticks) in various power states (Tick)
system.pc.south_bridge.ide.disks0.IdeDisk.dmaReadFullPages            0                       # Number of full page size DMA reads (not PRD). (Count)
system.pc.south_bridge.ide.disks0.IdeDisk.dmaReadBytes            0                       # Number of bytes transfered via DMA reads (not PRD). (Byte)
system.pc.south_bridge.ide.disks0.IdeDisk.dmaReadTxs            0                       # Number of DMA read transactions (not PRD). (Count)
system.pc.south_bridge.ide.disks0.IdeDisk.dmaWriteFullPages            0                       # Number of full page size DMA writes. (Count)
system.pc.south_bridge.ide.disks0.IdeDisk.dmaWriteBytes            0                       # Number of bytes transfered via DMA writes. (Byte)
system.pc.south_bridge.ide.disks0.IdeDisk.dmaWriteTxs            0                       # Number of DMA write transactions. (Count)
system.pc.south_bridge.ide.disks1.IdeDisk.dmaReadFullPages            0                       # Number of full page size DMA reads (not PRD). (Count)
system.pc.south_bridge.ide.disks1.IdeDisk.dmaReadBytes            0                       # Number of bytes transfered via DMA reads (not PRD). (Byte)
system.pc.south_bridge.ide.disks1.IdeDisk.dmaReadTxs            0                       # Number of DMA read transactions (not PRD). (Count)
system.pc.south_bridge.ide.disks1.IdeDisk.dmaWriteFullPages            0                       # Number of full page size DMA writes. (Count)
system.pc.south_bridge.ide.disks1.IdeDisk.dmaWriteBytes            0                       # Number of bytes transfered via DMA writes. (Byte)
system.pc.south_bridge.ide.disks1.IdeDisk.dmaWriteTxs            0                       # Number of DMA write transactions. (Count)
system.pc.south_bridge.ide.power_state.pwrStateResidencyTicks::UNDEFINED  36459359399                       # Cumulative time (in ticks) in various power states (Tick)
system.pc.south_bridge.io_apic.power_state.pwrStateResidencyTicks::UNDEFINED  36459359399                       # Cumulative time (in ticks) in various power states (Tick)
system.pc.south_bridge.keyboard.power_state.pwrStateResidencyTicks::UNDEFINED  36459359399                       # Cumulative time (in ticks) in various power states (Tick)
system.pc.south_bridge.pic1.power_state.pwrStateResidencyTicks::UNDEFINED  36459359399                       # Cumulative time (in ticks) in various power states (Tick)
system.pc.south_bridge.pic2.power_state.pwrStateResidencyTicks::UNDEFINED  36459359399                       # Cumulative time (in ticks) in various power states (Tick)
system.pc.south_bridge.pit.power_state.pwrStateResidencyTicks::UNDEFINED  36459359399                       # Cumulative time (in ticks) in various power states (Tick)
system.pc.south_bridge.speaker.power_state.pwrStateResidencyTicks::UNDEFINED  36459359399                       # Cumulative time (in ticks) in various power states (Tick)
system.workload.inst.arm                            0                       # number of arm instructions executed (Count)
system.workload.inst.quiesce                        0                       # number of quiesce instructions executed (Count)

---------- End Simulation Statistics   ----------
