
---------- Begin Simulation Statistics ----------
simSeconds                                   0.027333                       # Number of seconds simulated (Second)
simTicks                                  27332599250                       # Number of ticks simulated (Tick)
finalTick                                392398907295600                       # Number of ticks from beginning of simulation (restored from checkpoints and never reset) (Tick)
simFreq                                  1000000000000                       # The number of ticks per simulated second ((Tick/Second))
hostSeconds                                   4659.55                       # Real time elapsed on the host (Second)
hostTickRate                                  5865928                       # The number of ticks simulated per host second (ticks/s) ((Tick/Second))
hostMemory                                   71556380                       # Number of bytes of host memory used (Byte)
simInsts                                    251545953                       # Number of instructions simulated (Count)
simOps                                      397048938                       # Number of ops (including micro ops) simulated (Count)
hostInstRate                                    53985                       # Simulator instruction rate (inst/s) ((Count/Second))
hostOpRate                                      85212                       # Simulator op (including micro ops) rate (op/s) ((Count/Second))
system.caches.delayHistogram::bucket_size          256                       # delay histogram for all message (Unspecified)
system.caches.delayHistogram::max_bucket         2559                       # delay histogram for all message (Unspecified)
system.caches.delayHistogram::samples        19829068                       # delay histogram for all message (Unspecified)
system.caches.delayHistogram::mean           0.170179                       # delay histogram for all message (Unspecified)
system.caches.delayHistogram::stdev          1.398869                       # delay histogram for all message (Unspecified)
system.caches.delayHistogram             |    19829052    100.00%    100.00% |           5      0.00%    100.00% |           5      0.00%    100.00% |           2      0.00%    100.00% |           1      0.00%    100.00% |           1      0.00%    100.00% |           1      0.00%    100.00% |           1      0.00%    100.00% |           0      0.00%    100.00% |           0      0.00%    100.00% # delay histogram for all message (Unspecified)
system.caches.delayHistogram::total          19829068                       # delay histogram for all message (Unspecified)
system.caches.m_outstandReqHistSeqr::bucket_size            2                       (Unspecified)
system.caches.m_outstandReqHistSeqr::max_bucket           19                       (Unspecified)
system.caches.m_outstandReqHistSeqr::samples    160795200                       (Unspecified)
system.caches.m_outstandReqHistSeqr::mean     1.739917                       (Unspecified)
system.caches.m_outstandReqHistSeqr::gmean     1.482718                       (Unspecified)
system.caches.m_outstandReqHistSeqr::stdev     1.186212                       (Unspecified)
system.caches.m_outstandReqHistSeqr      |    94643281     58.86%     58.86% |    53024024     32.98%     91.84% |    10061779      6.26%     98.09% |     2643744      1.64%     99.74% |      335798      0.21%     99.95% |       72050      0.04%     99.99% |       12603      0.01%    100.00% |        1703      0.00%    100.00% |         218      0.00%    100.00% |           0      0.00%    100.00% (Unspecified)
system.caches.m_outstandReqHistSeqr::total    160795200                       (Unspecified)
system.caches.m_latencyHistSeqr::bucket_size          512                       (Unspecified)
system.caches.m_latencyHistSeqr::max_bucket         5119                       (Unspecified)
system.caches.m_latencyHistSeqr::samples    161248645                       (Unspecified)
system.caches.m_latencyHistSeqr::mean        7.497815                       (Unspecified)
system.caches.m_latencyHistSeqr::gmean       1.110532                       (Unspecified)
system.caches.m_latencyHistSeqr::stdev      59.202304                       (Unspecified)
system.caches.m_latencyHistSeqr          |   160868542     99.76%     99.76% |      342545      0.21%     99.98% |        3169      0.00%     99.98% |       13283      0.01%     99.99% |       19404      0.01%    100.00% |        1643      0.00%    100.00% |          54      0.00%    100.00% |           5      0.00%    100.00% |           0      0.00%    100.00% |           0      0.00%    100.00% (Unspecified)
system.caches.m_latencyHistSeqr::total      161248645                       (Unspecified)
system.caches.m_hitLatencyHistSeqr::bucket_size          256                       (Unspecified)
system.caches.m_hitLatencyHistSeqr::max_bucket         2559                       (Unspecified)
system.caches.m_hitLatencyHistSeqr::samples    158156361                       (Unspecified)
system.caches.m_hitLatencyHistSeqr::mean     1.003843                       (Unspecified)
system.caches.m_hitLatencyHistSeqr::gmean     1.002162                       (Unspecified)
system.caches.m_hitLatencyHistSeqr::stdev     0.763719                       (Unspecified)
system.caches.m_hitLatencyHistSeqr       |   158156175    100.00%    100.00% |         116      0.00%    100.00% |          48      0.00%    100.00% |           8      0.00%    100.00% |           4      0.00%    100.00% |           2      0.00%    100.00% |           1      0.00%    100.00% |           1      0.00%    100.00% |           4      0.00%    100.00% |           2      0.00%    100.00% (Unspecified)
system.caches.m_hitLatencyHistSeqr::total    158156361                       (Unspecified)
system.caches.m_missLatencyHistSeqr::bucket_size          512                       (Unspecified)
system.caches.m_missLatencyHistSeqr::max_bucket         5119                       (Unspecified)
system.caches.m_missLatencyHistSeqr::samples      3092284                       (Unspecified)
system.caches.m_missLatencyHistSeqr::mean   339.635164                       (Unspecified)
system.caches.m_missLatencyHistSeqr::gmean   211.966895                       (Unspecified)
system.caches.m_missLatencyHistSeqr::stdev   265.072539                       (Unspecified)
system.caches.m_missLatencyHistSeqr      |     2712251     87.71%     87.71% |      342489     11.08%     98.79% |        3163      0.10%     98.89% |       13281      0.43%     99.32% |       19398      0.63%     99.94% |        1643      0.05%    100.00% |          54      0.00%    100.00% |           5      0.00%    100.00% |           0      0.00%    100.00% |           0      0.00%    100.00% (Unspecified)
system.caches.m_missLatencyHistSeqr::total      3092284                       (Unspecified)
system.caches.delayVCHist.vnet_0::bucket_size          256                       # delay histogram for vnet_0 (Unspecified)
system.caches.delayVCHist.vnet_0::max_bucket         2559                       # delay histogram for vnet_0 (Unspecified)
system.caches.delayVCHist.vnet_0::samples      8297156                       # delay histogram for vnet_0 (Unspecified)
system.caches.delayVCHist.vnet_0::mean       0.314038                       # delay histogram for vnet_0 (Unspecified)
system.caches.delayVCHist.vnet_0::stdev      2.046279                       # delay histogram for vnet_0 (Unspecified)
system.caches.delayVCHist.vnet_0         |     8297140    100.00%    100.00% |           5      0.00%    100.00% |           5      0.00%    100.00% |           2      0.00%    100.00% |           1      0.00%    100.00% |           1      0.00%    100.00% |           1      0.00%    100.00% |           1      0.00%    100.00% |           0      0.00%    100.00% |           0      0.00%    100.00% # delay histogram for vnet_0 (Unspecified)
system.caches.delayVCHist.vnet_0::total       8297156                       # delay histogram for vnet_0 (Unspecified)
system.caches.delayVCHist.vnet_1::bucket_size            8                       # delay histogram for vnet_1 (Unspecified)
system.caches.delayVCHist.vnet_1::max_bucket           79                       # delay histogram for vnet_1 (Unspecified)
system.caches.delayVCHist.vnet_1::samples     11104654                       # delay histogram for vnet_1 (Unspecified)
system.caches.delayVCHist.vnet_1::mean       0.069232                       # delay histogram for vnet_1 (Unspecified)
system.caches.delayVCHist.vnet_1::stdev      0.582086                       # delay histogram for vnet_1 (Unspecified)
system.caches.delayVCHist.vnet_1         |    11092625     99.89%     99.89% |       11845      0.11%    100.00% |         174      0.00%    100.00% |           6      0.00%    100.00% |           3      0.00%    100.00% |           1      0.00%    100.00% |           0      0.00%    100.00% |           0      0.00%    100.00% |           0      0.00%    100.00% |           0      0.00%    100.00% # delay histogram for vnet_1 (Unspecified)
system.caches.delayVCHist.vnet_1::total      11104654                       # delay histogram for vnet_1 (Unspecified)
system.caches.delayVCHist.vnet_2::bucket_size            1                       # delay histogram for vnet_2 (Unspecified)
system.caches.delayVCHist.vnet_2::max_bucket            9                       # delay histogram for vnet_2 (Unspecified)
system.caches.delayVCHist.vnet_2::samples       427258                       # delay histogram for vnet_2 (Unspecified)
system.caches.delayVCHist.vnet_2::mean       0.000159                       # delay histogram for vnet_2 (Unspecified)
system.caches.delayVCHist.vnet_2::stdev      0.017841                       # delay histogram for vnet_2 (Unspecified)
system.caches.delayVCHist.vnet_2         |      427224     99.99%     99.99% |           0      0.00%     99.99% |          34      0.01%    100.00% |           0      0.00%    100.00% |           0      0.00%    100.00% |           0      0.00%    100.00% |           0      0.00%    100.00% |           0      0.00%    100.00% |           0      0.00%    100.00% |           0      0.00%    100.00% # delay histogram for vnet_2 (Unspecified)
system.caches.delayVCHist.vnet_2::total        427258                       # delay histogram for vnet_2 (Unspecified)
system.caches.L1Cache_Controller.Load    |     9576929     12.17%     12.17% |     9986465     12.69%     24.86% |     9965918     12.66%     37.52% |     9757577     12.40%     49.91% |     9844331     12.51%     62.42% |     9712485     12.34%     74.76% |     9925776     12.61%     87.37% |     9939835     12.63%    100.00% (Unspecified)
system.caches.L1Cache_Controller.Load::total     78709316                       (Unspecified)
system.caches.L1Cache_Controller.Ifetch  |    10065352     12.59%     12.59% |     9979788     12.48%     25.06% |     9971831     12.47%     37.53% |     9985686     12.49%     50.02% |    10017005     12.52%     62.54% |    10026615     12.54%     75.08% |     9976142     12.47%     87.55% |     9954433     12.45%    100.00% (Unspecified)
system.caches.L1Cache_Controller.Ifetch::total     79976852                       (Unspecified)
system.caches.L1Cache_Controller.Store   |      360262     14.06%     14.06% |      312394     12.19%     26.25% |      311707     12.16%     38.41% |      311503     12.16%     50.57% |      330629     12.90%     63.47% |      311573     12.16%     75.63% |      312063     12.18%     87.81% |      312349     12.19%    100.00% (Unspecified)
system.caches.L1Cache_Controller.Store::total      2562480                       (Unspecified)
system.caches.L1Cache_Controller.Inv     |       45410     12.97%     12.97% |       43789     12.50%     25.47% |       42817     12.22%     37.69% |       43501     12.42%     50.11% |       43474     12.41%     62.53% |       43404     12.39%     74.92% |       43455     12.41%     87.33% |       44393     12.67%    100.00% (Unspecified)
system.caches.L1Cache_Controller.Inv::total       350243                       (Unspecified)
system.caches.L1Cache_Controller.L1_Replacement |      382742     12.63%     12.63% |      377321     12.45%     25.08% |      377232     12.45%     37.53% |      377876     12.47%     50.00% |      379361     12.52%     62.51% |      381688     12.59%     75.11% |      377665     12.46%     87.57% |      376734     12.43%    100.00% (Unspecified)
system.caches.L1Cache_Controller.L1_Replacement::total      3030619                       (Unspecified)
system.caches.L1Cache_Controller.Fwd_GETX |         121     11.84%     11.84% |         140     13.70%     25.54% |         128     12.52%     38.06% |         128     12.52%     50.59% |         132     12.92%     63.50% |         117     11.45%     74.95% |         129     12.62%     87.57% |         127     12.43%    100.00% (Unspecified)
system.caches.L1Cache_Controller.Fwd_GETX::total         1022                       (Unspecified)
system.caches.L1Cache_Controller.Fwd_GETS |        9957     13.10%     13.10% |        9799     12.89%     26.00% |        9896     13.02%     39.02% |        9500     12.50%     51.52% |        9269     12.20%     63.72% |        9253     12.18%     75.89% |        9222     12.14%     88.03% |        9096     11.97%    100.00% (Unspecified)
system.caches.L1Cache_Controller.Fwd_GETS::total        75992                       (Unspecified)
system.caches.L1Cache_Controller.Fwd_GET_INSTR |           1    100.00%    100.00% |           0      0.00%    100.00% |           0      0.00%    100.00% |           0      0.00%    100.00% |           0      0.00%    100.00% |           0      0.00%    100.00% |           0      0.00%    100.00% |           0      0.00%    100.00% (Unspecified)
system.caches.L1Cache_Controller.Fwd_GET_INSTR::total            1                       (Unspecified)
system.caches.L1Cache_Controller.Data    |          32     94.12%     94.12% |           2      5.88%    100.00% |           0      0.00%    100.00% |           0      0.00%    100.00% |           0      0.00%    100.00% |           0      0.00%    100.00% |           0      0.00%    100.00% |           0      0.00%    100.00% (Unspecified)
system.caches.L1Cache_Controller.Data::total           34                       (Unspecified)
system.caches.L1Cache_Controller.Data_Exclusive |      328790     12.55%     12.55% |      326793     12.47%     25.02% |      326445     12.46%     37.48% |      327090     12.48%     49.96% |      327450     12.50%     62.46% |      330333     12.61%     75.07% |      327501     12.50%     87.57% |      325710     12.43%    100.00% (Unspecified)
system.caches.L1Cache_Controller.Data_Exclusive::total      2620112                       (Unspecified)
system.caches.L1Cache_Controller.DataS_fromL1 |        9416     12.39%     12.39% |        9920     13.05%     25.44% |        9565     12.59%     38.03% |        9335     12.28%     50.32% |        9266     12.19%     62.51% |        9549     12.57%     75.07% |        9422     12.40%     87.47% |        9520     12.53%    100.00% (Unspecified)
system.caches.L1Cache_Controller.DataS_fromL1::total        75993                       (Unspecified)
system.caches.L1Cache_Controller.Data_all_Acks |       51197     13.12%     13.12% |       47676     12.22%     25.35% |       47941     12.29%     37.64% |       48529     12.44%     50.08% |       49648     12.73%     62.81% |       48834     12.52%     75.33% |       47776     12.25%     87.57% |       48472     12.43%    100.00% (Unspecified)
system.caches.L1Cache_Controller.Data_all_Acks::total       390073                       (Unspecified)
system.caches.L1Cache_Controller.Ack     |        1950      9.46%      9.46% |        3283     15.92%     25.38% |        5931     28.76%     54.14% |        2459     11.92%     66.06% |        2032      9.85%     75.91% |        1837      8.91%     84.82% |        1537      7.45%     92.28% |        1593      7.72%    100.00% (Unspecified)
system.caches.L1Cache_Controller.Ack::total        20622                       (Unspecified)
system.caches.L1Cache_Controller.Ack_all |         665     10.89%     10.89% |         951     15.57%     26.47% |        1290     21.13%     47.59% |         830     13.59%     61.19% |         677     11.09%     72.27% |         617     10.10%     82.38% |         538      8.81%     91.19% |         538      8.81%    100.00% (Unspecified)
system.caches.L1Cache_Controller.Ack_all::total         6106                       (Unspecified)
system.caches.L1Cache_Controller.WB_Ack  |      316898     12.70%     12.70% |      309942     12.42%     25.13% |      310401     12.44%     37.57% |      310960     12.47%     50.04% |      311410     12.48%     62.52% |      314684     12.61%     75.14% |      311193     12.47%     87.61% |      309067     12.39%    100.00% (Unspecified)
system.caches.L1Cache_Controller.WB_Ack::total      2494555                       (Unspecified)
system.caches.L1Cache_Controller.NP.Load |      376783     12.55%     12.55% |      374420     12.47%     25.01% |      374482     12.47%     37.48% |      375051     12.49%     49.97% |      375469     12.50%     62.47% |      378707     12.61%     75.09% |      374840     12.48%     87.57% |      373378     12.43%    100.00% (Unspecified)
system.caches.L1Cache_Controller.NP.Load::total      3003130                       (Unspecified)
system.caches.L1Cache_Controller.NP.Ifetch |        4455     20.86%     20.86% |        2232     10.45%     31.31% |        2085      9.76%     41.08% |        2167     10.15%     51.22% |        3249     15.21%     66.44% |        2315     10.84%     77.28% |        2161     10.12%     87.39% |        2692     12.61%    100.00% (Unspecified)
system.caches.L1Cache_Controller.NP.Ifetch::total        21356                       (Unspecified)
system.caches.L1Cache_Controller.NP.Store |        1691     24.37%     24.37% |         751     10.82%     35.19% |         733     10.56%     45.75% |         736     10.61%     56.35% |         739     10.65%     67.00% |         762     10.98%     77.98% |         747     10.76%     88.75% |         781     11.25%    100.00% (Unspecified)
system.caches.L1Cache_Controller.NP.Store::total         6940                       (Unspecified)
system.caches.L1Cache_Controller.NP.Inv  |       31769     13.14%     13.14% |       29948     12.39%     25.53% |       29743     12.30%     37.83% |       30083     12.44%     50.28% |       30007     12.41%     62.69% |       30293     12.53%     75.22% |       29825     12.34%     87.56% |       30086     12.44%    100.00% (Unspecified)
system.caches.L1Cache_Controller.NP.Inv::total       241754                       (Unspecified)
system.caches.L1Cache_Controller.I.Load  |        3618     11.95%     11.95% |        3930     12.98%     24.93% |        3558     11.75%     36.68% |        3910     12.91%     49.59% |        3835     12.66%     62.25% |        3828     12.64%     74.90% |        3819     12.61%     87.51% |        3783     12.49%    100.00% (Unspecified)
system.caches.L1Cache_Controller.I.Load::total        30281                       (Unspecified)
system.caches.L1Cache_Controller.I.Ifetch |        2752     11.81%     11.81% |        2921     12.53%     24.34% |        2944     12.63%     36.97% |        2929     12.57%     49.54% |        2918     12.52%     62.06% |        2948     12.65%     74.71% |        2980     12.79%     87.49% |        2915     12.51%    100.00% (Unspecified)
system.caches.L1Cache_Controller.I.Ifetch::total        23307                       (Unspecified)
system.caches.L1Cache_Controller.I.Store |         136     11.40%     11.40% |         138     11.57%     22.97% |         148     12.41%     35.37% |         160     13.41%     48.78% |         153     12.82%     61.61% |         155     12.99%     74.60% |         151     12.66%     87.26% |         152     12.74%    100.00% (Unspecified)
system.caches.L1Cache_Controller.I.Store::total         1193                       (Unspecified)
system.caches.L1Cache_Controller.I.L1_Replacement |        7075      9.07%      9.07% |       10340     13.26%     22.34% |        9901     12.70%     35.04% |        9931     12.74%     47.77% |       10060     12.90%     60.68% |        9577     12.28%     72.96% |       10223     13.11%     86.07% |       10857     13.93%    100.00% (Unspecified)
system.caches.L1Cache_Controller.I.L1_Replacement::total        77964                       (Unspecified)
system.caches.L1Cache_Controller.S.Load  |     4834793     11.84%     11.84% |     5304393     12.99%     24.84% |     5167955     12.66%     37.49% |     5075412     12.43%     49.93% |     5136345     12.58%     62.51% |     5013512     12.28%     74.79% |     5240526     12.84%     87.62% |     5052783     12.38%    100.00% (Unspecified)
system.caches.L1Cache_Controller.S.Load::total     40825719                       (Unspecified)
system.caches.L1Cache_Controller.S.Ifetch |    10058143     12.58%     12.58% |     9974635     12.48%     25.06% |     9966802     12.47%     37.53% |     9980590     12.49%     50.02% |    10010838     12.52%     62.54% |    10021352     12.54%     75.08% |     9971001     12.47%     87.55% |     9948826     12.45%    100.00% (Unspecified)
system.caches.L1Cache_Controller.S.Ifetch::total     79932187                       (Unspecified)
system.caches.L1Cache_Controller.S.Store |         633     10.41%     10.41% |         949     15.61%     26.03% |        1291     21.24%     47.27% |         831     13.67%     60.94% |         678     11.15%     72.10% |         618     10.17%     82.26% |         539      8.87%     91.13% |         539      8.87%    100.00% (Unspecified)
system.caches.L1Cache_Controller.S.Store::total         6078                       (Unspecified)
system.caches.L1Cache_Controller.S.Inv   |        9333     13.13%     13.13% |        8718     12.27%     25.40% |        8501     11.96%     37.37% |        8831     12.43%     49.79% |        8915     12.55%     62.34% |        8867     12.48%     74.82% |        8923     12.56%     87.37% |        8973     12.63%    100.00% (Unspecified)
system.caches.L1Cache_Controller.S.Inv::total        71061                       (Unspecified)
system.caches.L1Cache_Controller.S.L1_Replacement |       58769     12.83%     12.83% |       57039     12.45%     25.28% |       56930     12.43%     37.71% |       56985     12.44%     50.15% |       57888     12.64%     62.78% |       57427     12.54%     75.32% |       56249     12.28%     87.60% |       56810     12.40%    100.00% (Unspecified)
system.caches.L1Cache_Controller.S.L1_Replacement::total       458097                       (Unspecified)
system.caches.L1Cache_Controller.E.Load  |     2340733     12.39%     12.39% |     2290377     12.12%     24.51% |     2449176     12.96%     37.47% |     2306692     12.21%     49.68% |     2192198     11.60%     61.29% |     2463090     13.04%     74.32% |     2298015     12.16%     86.49% |     2553113     13.51%    100.00% (Unspecified)
system.caches.L1Cache_Controller.E.Load::total     18893394                       (Unspecified)
system.caches.L1Cache_Controller.E.Store |       33131     12.67%     12.67% |       32458     12.41%     25.07% |       32141     12.29%     37.36% |       32574     12.45%     49.81% |       32741     12.52%     62.33% |       32793     12.54%     74.87% |       32849     12.56%     87.42% |       32900     12.58%    100.00% (Unspecified)
system.caches.L1Cache_Controller.E.Store::total       261587                       (Unspecified)
system.caches.L1Cache_Controller.E.Inv   |        3607     10.94%     10.94% |        4538     13.76%     24.70% |        4001     12.13%     36.84% |        4042     12.26%     49.10% |        3956     12.00%     61.10% |        3734     11.33%     72.42% |        4237     12.85%     85.27% |        4856     14.73%    100.00% (Unspecified)
system.caches.L1Cache_Controller.E.Inv::total        32971                       (Unspecified)
system.caches.L1Cache_Controller.E.L1_Replacement |      278907     12.53%     12.53% |      277188     12.45%     24.99% |      277972     12.49%     37.47% |      278039     12.49%     49.97% |      278393     12.51%     62.47% |      281514     12.65%     75.12% |      277974     12.49%     87.61% |      275703     12.39%    100.00% (Unspecified)
system.caches.L1Cache_Controller.E.L1_Replacement::total      2225690                       (Unspecified)
system.caches.L1Cache_Controller.E.Fwd_GETX |           1      2.70%      2.70% |          14     37.84%     40.54% |           4     10.81%     51.35% |           3      8.11%     59.46% |           5     13.51%     72.97% |           3      8.11%     81.08% |           4     10.81%     91.89% |           3      8.11%    100.00% (Unspecified)
system.caches.L1Cache_Controller.E.Fwd_GETX::total           37                       (Unspecified)
system.caches.L1Cache_Controller.E.Fwd_GETS |        9269     13.16%     13.16% |        8944     12.69%     25.85% |        8669     12.30%     38.15% |        8756     12.43%     50.58% |        8686     12.33%     62.91% |        8707     12.36%     75.27% |        8746     12.41%     87.68% |        8682     12.32%    100.00% (Unspecified)
system.caches.L1Cache_Controller.E.Fwd_GETS::total        70459                       (Unspecified)
system.caches.L1Cache_Controller.E.Fwd_GET_INSTR |           1    100.00%    100.00% |           0      0.00%    100.00% |           0      0.00%    100.00% |           0      0.00%    100.00% |           0      0.00%    100.00% |           0      0.00%    100.00% |           0      0.00%    100.00% |           0      0.00%    100.00% (Unspecified)
system.caches.L1Cache_Controller.E.Fwd_GET_INSTR::total            1                       (Unspecified)
system.caches.L1Cache_Controller.M.Load  |     2021002     12.67%     12.67% |     2013345     12.62%     25.28% |     1970747     12.35%     37.63% |     1996512     12.51%     50.15% |     2136484     13.39%     63.53% |     1853348     11.61%     75.15% |     2008576     12.59%     87.74% |     1956778     12.26%    100.00% (Unspecified)
system.caches.L1Cache_Controller.M.Load::total     15956792                       (Unspecified)
system.caches.L1Cache_Controller.M.Store |      324671     14.20%     14.20% |      278098     12.16%     26.36% |      277394     12.13%     38.49% |      277202     12.12%     50.61% |      296318     12.96%     63.57% |      277245     12.12%     75.70% |      277777     12.15%     87.84% |      277977     12.16%    100.00% (Unspecified)
system.caches.L1Cache_Controller.M.Store::total      2286682                       (Unspecified)
system.caches.L1Cache_Controller.M.Inv   |         701     16.04%     16.04% |         573     13.11%     29.15% |         540     12.36%     41.51% |         520     11.90%     53.41% |         591     13.52%     66.93% |         506     11.58%     78.51% |         466     10.66%     89.18% |         473     10.82%    100.00% (Unspecified)
system.caches.L1Cache_Controller.M.Inv::total         4370                       (Unspecified)
system.caches.L1Cache_Controller.M.L1_Replacement |       37991     14.13%     14.13% |       32754     12.18%     26.31% |       32429     12.06%     38.37% |       32921     12.24%     50.62% |       33017     12.28%     62.90% |       33170     12.34%     75.24% |       33219     12.36%     87.59% |       33364     12.41%    100.00% (Unspecified)
system.caches.L1Cache_Controller.M.L1_Replacement::total       268865                       (Unspecified)
system.caches.L1Cache_Controller.M.Fwd_GETX |         120     12.18%     12.18% |         126     12.79%     24.97% |         124     12.59%     37.56% |         125     12.69%     50.25% |         127     12.89%     63.15% |         114     11.57%     74.72% |         125     12.69%     87.41% |         124     12.59%    100.00% (Unspecified)
system.caches.L1Cache_Controller.M.Fwd_GETX::total          985                       (Unspecified)
system.caches.L1Cache_Controller.M.Fwd_GETS |         688     12.44%     12.44% |         855     15.46%     27.89% |        1227     22.18%     50.07% |         744     13.45%     63.52% |         583     10.54%     74.06% |         546      9.87%     83.93% |         476      8.60%     92.53% |         413      7.47%    100.00% (Unspecified)
system.caches.L1Cache_Controller.M.Fwd_GETS::total         5532                       (Unspecified)
system.caches.L1Cache_Controller.IS.Inv  |           0      0.00%      0.00% |          11     14.67%     14.67% |          28     37.33%     52.00% |          24     32.00%     84.00% |           3      4.00%     88.00% |           3      4.00%     92.00% |           3      4.00%     96.00% |           3      4.00%    100.00% (Unspecified)
system.caches.L1Cache_Controller.IS.Inv::total           75                       (Unspecified)
system.caches.L1Cache_Controller.IS.L1_Replacement |           0      0.00%      0.00% |           0      0.00%      0.00% |           0      0.00%      0.00% |           0      0.00%      0.00% |           2    100.00%    100.00% |           0      0.00%    100.00% |           0      0.00%    100.00% |           0      0.00%    100.00% (Unspecified)
system.caches.L1Cache_Controller.IS.L1_Replacement::total            2                       (Unspecified)
system.caches.L1Cache_Controller.IS.Data_Exclusive |      328790     12.55%     12.55% |      326793     12.47%     25.02% |      326444     12.46%     37.48% |      327090     12.48%     49.96% |      327450     12.50%     62.46% |      330333     12.61%     75.07% |      327501     12.50%     87.57% |      325710     12.43%    100.00% (Unspecified)
system.caches.L1Cache_Controller.IS.Data_Exclusive::total      2620111                       (Unspecified)
system.caches.L1Cache_Controller.IS.DataS_fromL1 |        9416     12.39%     12.39% |        9920     13.05%     25.44% |        9565     12.59%     38.03% |        9335     12.28%     50.32% |        9266     12.19%     62.51% |        9549     12.57%     75.07% |        9422     12.40%     87.47% |        9520     12.53%    100.00% (Unspecified)
system.caches.L1Cache_Controller.IS.DataS_fromL1::total        75993                       (Unspecified)
system.caches.L1Cache_Controller.IS.Data_all_Acks |       49402     12.94%     12.94% |       46778     12.25%     25.18% |       47032     12.32%     37.50% |       47608     12.47%     49.97% |       48752     12.77%     62.73% |       47913     12.55%     75.28% |       46874     12.27%     87.55% |       47535     12.45%    100.00% (Unspecified)
system.caches.L1Cache_Controller.IS.Data_all_Acks::total       381894                       (Unspecified)
system.caches.L1Cache_Controller.IM.L1_Replacement |           0      0.00%      0.00% |           0      0.00%      0.00% |           0      0.00%      0.00% |           0      0.00%      0.00% |           1    100.00%    100.00% |           0      0.00%    100.00% |           0      0.00%    100.00% |           0      0.00%    100.00% (Unspecified)
system.caches.L1Cache_Controller.IM.L1_Replacement::total            1                       (Unspecified)
system.caches.L1Cache_Controller.IM.Data |          32     94.12%     94.12% |           2      5.88%    100.00% |           0      0.00%    100.00% |           0      0.00%    100.00% |           0      0.00%    100.00% |           0      0.00%    100.00% |           0      0.00%    100.00% |           0      0.00%    100.00% (Unspecified)
system.caches.L1Cache_Controller.IM.Data::total           34                       (Unspecified)
system.caches.L1Cache_Controller.IM.Data_all_Acks |        1795     22.15%     22.15% |         887     10.94%     33.09% |         882     10.88%     43.97% |         897     11.07%     55.04% |         893     11.02%     66.06% |         918     11.33%     77.38% |         899     11.09%     88.48% |         934     11.52%    100.00% (Unspecified)
system.caches.L1Cache_Controller.IM.Data_all_Acks::total         8105                       (Unspecified)
system.caches.L1Cache_Controller.SM.Inv  |           0      0.00%      0.00% |           0      0.00%      0.00% |           1     16.67%     16.67% |           1     16.67%     33.33% |           1     16.67%     50.00% |           1     16.67%     66.67% |           1     16.67%     83.33% |           1     16.67%    100.00% (Unspecified)
system.caches.L1Cache_Controller.SM.Inv::total            6                       (Unspecified)
system.caches.L1Cache_Controller.SM.Ack  |        1950      9.46%      9.46% |        3283     15.92%     25.38% |        5931     28.76%     54.14% |        2459     11.92%     66.06% |        2032      9.85%     75.91% |        1837      8.91%     84.82% |        1537      7.45%     92.28% |        1593      7.72%    100.00% (Unspecified)
system.caches.L1Cache_Controller.SM.Ack::total        20622                       (Unspecified)
system.caches.L1Cache_Controller.SM.Ack_all |         665     10.89%     10.89% |         951     15.57%     26.47% |        1290     21.13%     47.59% |         830     13.59%     61.19% |         677     11.09%     72.27% |         617     10.10%     82.38% |         538      8.81%     91.19% |         538      8.81%    100.00% (Unspecified)
system.caches.L1Cache_Controller.SM.Ack_all::total         6106                       (Unspecified)
system.caches.L1Cache_Controller.IS_I.Data_Exclusive |           0      0.00%      0.00% |           0      0.00%      0.00% |           1    100.00%    100.00% |           0      0.00%    100.00% |           0      0.00%    100.00% |           0      0.00%    100.00% |           0      0.00%    100.00% |           0      0.00%    100.00% (Unspecified)
system.caches.L1Cache_Controller.IS_I.Data_Exclusive::total            1                       (Unspecified)
system.caches.L1Cache_Controller.IS_I.Data_all_Acks |           0      0.00%      0.00% |          11     14.86%     14.86% |          27     36.49%     51.35% |          24     32.43%     83.78% |           3      4.05%     87.84% |           3      4.05%     91.89% |           3      4.05%     95.95% |           3      4.05%    100.00% (Unspecified)
system.caches.L1Cache_Controller.IS_I.Data_all_Acks::total           74                       (Unspecified)
system.caches.L1Cache_Controller.M_I.Ifetch |           2    100.00%    100.00% |           0      0.00%    100.00% |           0      0.00%    100.00% |           0      0.00%    100.00% |           0      0.00%    100.00% |           0      0.00%    100.00% |           0      0.00%    100.00% |           0      0.00%    100.00% (Unspecified)
system.caches.L1Cache_Controller.M_I.Ifetch::total            2                       (Unspecified)
system.caches.L1Cache_Controller.M_I.Inv |           0      0.00%      0.00% |           1     16.67%     16.67% |           3     50.00%     66.67% |           0      0.00%     66.67% |           1     16.67%     83.33% |           0      0.00%     83.33% |           0      0.00%     83.33% |           1     16.67%    100.00% (Unspecified)
system.caches.L1Cache_Controller.M_I.Inv::total            6                       (Unspecified)
system.caches.L1Cache_Controller.M_I.Fwd_GETS |           0      0.00%      0.00% |           0      0.00%      0.00% |           0      0.00%      0.00% |           0      0.00%      0.00% |           0      0.00%      0.00% |           0      0.00%      0.00% |           0      0.00%      0.00% |           1    100.00%    100.00% (Unspecified)
system.caches.L1Cache_Controller.M_I.Fwd_GETS::total            1                       (Unspecified)
system.caches.L1Cache_Controller.M_I.WB_Ack |      316898     12.70%     12.70% |      309941     12.42%     25.13% |      310398     12.44%     37.57% |      310960     12.47%     50.04% |      311409     12.48%     62.52% |      314684     12.61%     75.14% |      311193     12.47%     87.61% |      309065     12.39%    100.00% (Unspecified)
system.caches.L1Cache_Controller.M_I.WB_Ack::total      2494548                       (Unspecified)
system.caches.L1Cache_Controller.SINK_WB_ACK.WB_Ack |           0      0.00%      0.00% |           1     14.29%     14.29% |           3     42.86%     57.14% |           0      0.00%     57.14% |           1     14.29%     71.43% |           0      0.00%     71.43% |           0      0.00%     71.43% |           2     28.57%    100.00% (Unspecified)
system.caches.L1Cache_Controller.SINK_WB_ACK.WB_Ack::total            7                       (Unspecified)
system.caches.Directory_Controller.Fetch |        7653      0.30%      0.30% |     2538137     99.70%    100.00% (Unspecified)
system.caches.Directory_Controller.Fetch::total      2545790                       (Unspecified)
system.caches.Directory_Controller.Data  |         482      0.15%      0.15% |      330020     99.85%    100.00% (Unspecified)
system.caches.Directory_Controller.Data::total       330502                       (Unspecified)
system.caches.Directory_Controller.Memory_Data |        7653      0.30%      0.30% |     2538136     99.70%    100.00% (Unspecified)
system.caches.Directory_Controller.Memory_Data::total      2545789                       (Unspecified)
system.caches.Directory_Controller.Memory_Ack |         482      0.15%      0.15% |      330020     99.85%    100.00% (Unspecified)
system.caches.Directory_Controller.Memory_Ack::total       330502                       (Unspecified)
system.caches.Directory_Controller.CleanReplacement |        7246      0.33%      0.33% |     2208042     99.67%    100.00% (Unspecified)
system.caches.Directory_Controller.CleanReplacement::total      2215288                       (Unspecified)
system.caches.Directory_Controller.I.Fetch |        7653      0.30%      0.30% |     2538137     99.70%    100.00% (Unspecified)
system.caches.Directory_Controller.I.Fetch::total      2545790                       (Unspecified)
system.caches.Directory_Controller.M.Data |         482      0.15%      0.15% |      330020     99.85%    100.00% (Unspecified)
system.caches.Directory_Controller.M.Data::total       330502                       (Unspecified)
system.caches.Directory_Controller.M.CleanReplacement |        7246      0.33%      0.33% |     2208042     99.67%    100.00% (Unspecified)
system.caches.Directory_Controller.M.CleanReplacement::total      2215288                       (Unspecified)
system.caches.Directory_Controller.IM.Memory_Data |        7653      0.30%      0.30% |     2538136     99.70%    100.00% (Unspecified)
system.caches.Directory_Controller.IM.Memory_Data::total      2545789                       (Unspecified)
system.caches.Directory_Controller.MI.Memory_Ack |         482      0.15%      0.15% |      330020     99.85%    100.00% (Unspecified)
system.caches.Directory_Controller.MI.Memory_Ack::total       330502                       (Unspecified)
system.caches.L2Cache_Controller.L1_GET_INSTR |        5927     13.20%     13.20% |        5968     13.29%     26.48% |        5794     12.90%     39.38% |        4398      9.79%     49.17% |        5615     12.50%     61.67% |        5852     13.03%     74.70% |        5453     12.14%     86.84% |        5910     13.16%    100.00% (Unspecified)
system.caches.L2Cache_Controller.L1_GET_INSTR::total        44917                       (Unspecified)
system.caches.L2Cache_Controller.L1_GETS |      382400     12.60%     12.60% |      379225     12.50%     25.10% |      380623     12.54%     37.64% |      375258     12.37%     50.01% |      377434     12.44%     62.45% |      378436     12.47%     74.92% |      378505     12.47%     87.39% |      382509     12.61%    100.00% (Unspecified)
system.caches.L2Cache_Controller.L1_GETS::total      3034390                       (Unspecified)
system.caches.L2Cache_Controller.L1_GETX |        1203     14.54%     14.54% |        1796     21.71%     36.25% |         221      2.67%     38.93% |         663      8.01%     46.94% |         844     10.20%     57.14% |        1511     18.27%     75.41% |         846     10.23%     85.64% |        1188     14.36%    100.00% (Unspecified)
system.caches.L2Cache_Controller.L1_GETX::total         8272                       (Unspecified)
system.caches.L2Cache_Controller.L1_UPGRADE |         691     11.29%     11.29% |         705     11.52%     22.80% |         688     11.24%     34.04% |         738     12.05%     46.10% |         722     11.79%     57.89% |         730     11.92%     69.81% |         906     14.80%     84.61% |         942     15.39%    100.00% (Unspecified)
system.caches.L2Cache_Controller.L1_UPGRADE::total         6122                       (Unspecified)
system.caches.L2Cache_Controller.L1_PUTX |      313057     12.55%     12.55% |      312032     12.51%     25.06% |      311203     12.48%     37.53% |      310808     12.46%     49.99% |      311177     12.47%     62.47% |      312156     12.51%     74.98% |      311865     12.50%     87.48% |      312252     12.52%    100.00% (Unspecified)
system.caches.L2Cache_Controller.L1_PUTX::total      2494550                       (Unspecified)
system.caches.L2Cache_Controller.L1_PUTX_old |           2     16.67%     16.67% |           6     50.00%     66.67% |           2     16.67%     83.33% |           0      0.00%     83.33% |           0      0.00%     83.33% |           2     16.67%    100.00% |           0      0.00%    100.00% |           0      0.00%    100.00% (Unspecified)
system.caches.L2Cache_Controller.L1_PUTX_old::total           12                       (Unspecified)
system.caches.L2Cache_Controller.L2_Replacement |       41022     12.57%     12.57% |       40487     12.41%     24.99% |       40074     12.28%     37.27% |       40719     12.48%     49.75% |       40615     12.45%     62.20% |       41340     12.67%     74.87% |       40767     12.50%     87.37% |       41207     12.63%    100.00% (Unspecified)
system.caches.L2Cache_Controller.L2_Replacement::total       326231                       (Unspecified)
system.caches.L2Cache_Controller.L2_Replacement_clean |      278508     12.55%     12.55% |      278278     12.54%     25.09% |      277101     12.48%     37.57% |      276643     12.46%     50.03% |      276910     12.48%     62.51% |      277138     12.49%     75.00% |      277274     12.49%     87.49% |      277707     12.51%    100.00% (Unspecified)
system.caches.L2Cache_Controller.L2_Replacement_clean::total      2219559                       (Unspecified)
system.caches.L2Cache_Controller.Mem_Data |      319529     12.55%     12.55% |      318765     12.52%     25.07% |      317175     12.46%     37.53% |      317362     12.47%     50.00% |      317525     12.47%     62.47% |      318478     12.51%     74.98% |      318041     12.49%     87.47% |      318914     12.53%    100.00% (Unspecified)
system.caches.L2Cache_Controller.Mem_Data::total      2545789                       (Unspecified)
system.caches.L2Cache_Controller.Mem_Ack |      319530     12.55%     12.55% |      318765     12.52%     25.07% |      317175     12.46%     37.53% |      317362     12.47%     50.00% |      317525     12.47%     62.47% |      318478     12.51%     74.98% |      318041     12.49%     87.47% |      318914     12.53%    100.00% (Unspecified)
system.caches.L2Cache_Controller.Mem_Ack::total      2545790                       (Unspecified)
system.caches.L2Cache_Controller.WB_Data |        1425     14.39%     14.39% |        1259     12.71%     27.11% |         990     10.00%     37.10% |        1147     11.58%     48.69% |        1125     11.36%     60.05% |        1232     12.44%     72.49% |        1254     12.66%     85.15% |        1470     14.85%    100.00% (Unspecified)
system.caches.L2Cache_Controller.WB_Data::total         9902                       (Unspecified)
system.caches.L2Cache_Controller.WB_Data_clean |        8776     12.45%     12.45% |        8815     12.51%     24.96% |        8727     12.38%     37.35% |        8692     12.33%     49.68% |        8752     12.42%     62.10% |        8805     12.50%     74.60% |        8693     12.34%     86.93% |        9207     13.07%    100.00% (Unspecified)
system.caches.L2Cache_Controller.WB_Data_clean::total        70467                       (Unspecified)
system.caches.L2Cache_Controller.Ack     |       28209     13.23%     13.23% |       27386     12.85%     26.08% |       26920     12.63%     38.70% |       25153     11.80%     50.50% |       25925     12.16%     62.66% |       26133     12.26%     74.92% |       25575     12.00%     86.91% |       27902     13.09%    100.00% (Unspecified)
system.caches.L2Cache_Controller.Ack::total       213203                       (Unspecified)
system.caches.L2Cache_Controller.Ack_all |       14411     12.87%     12.87% |       14521     12.96%     25.83% |       13511     12.06%     37.89% |       13688     12.22%     50.11% |       13869     12.38%     62.50% |       13904     12.41%     74.91% |       13660     12.20%     87.10% |       14444     12.90%    100.00% (Unspecified)
system.caches.L2Cache_Controller.Ack_all::total       112008                       (Unspecified)
system.caches.L2Cache_Controller.Unblock |        9451     12.44%     12.44% |        9475     12.47%     24.90% |        9319     12.26%     37.17% |        9366     12.32%     49.49% |        9394     12.36%     61.85% |        9441     12.42%     74.28% |        9460     12.45%     86.73% |       10087     13.27%    100.00% (Unspecified)
system.caches.L2Cache_Controller.Unblock::total        75993                       (Unspecified)
system.caches.L2Cache_Controller.Exclusive_Unblock |      330726     12.55%     12.55% |      330627     12.55%     25.11% |      327807     12.44%     37.55% |      327969     12.45%     50.00% |      328394     12.47%     62.46% |      329504     12.51%     74.97% |      329105     12.49%     87.47% |      330191     12.53%    100.00% (Unspecified)
system.caches.L2Cache_Controller.Exclusive_Unblock::total      2634323                       (Unspecified)
system.caches.L2Cache_Controller.NP.L1_GET_INSTR |         918     13.38%     13.38% |         938     13.67%     27.04% |         892     13.00%     40.04% |         725     10.56%     50.60% |         832     12.12%     62.73% |         824     12.01%     74.73% |         823     11.99%     86.73% |         911     13.27%    100.00% (Unspecified)
system.caches.L2Cache_Controller.NP.L1_GET_INSTR::total         6863                       (Unspecified)
system.caches.L2Cache_Controller.NP.L1_GETS |      317486     12.54%     12.54% |      317048     12.52%     25.06% |      316085     12.48%     37.54% |      316026     12.48%     50.02% |      315914     12.48%     62.50% |      316283     12.49%     74.99% |      316459     12.50%     87.48% |      316990     12.52%    100.00% (Unspecified)
system.caches.L2Cache_Controller.NP.L1_GETS::total      2532291                       (Unspecified)
system.caches.L2Cache_Controller.NP.L1_GETX |        1126     16.97%     16.97% |         779     11.74%     28.71% |         198      2.98%     31.69% |         611      9.21%     40.90% |         779     11.74%     52.64% |        1371     20.66%     73.30% |         759     11.44%     84.73% |        1013     15.27%    100.00% (Unspecified)
system.caches.L2Cache_Controller.NP.L1_GETX::total         6636                       (Unspecified)
system.caches.L2Cache_Controller.NP.L1_PUTX_old |           1     16.67%     16.67% |           3     50.00%     66.67% |           1     16.67%     83.33% |           0      0.00%     83.33% |           0      0.00%     83.33% |           1     16.67%    100.00% |           0      0.00%    100.00% |           0      0.00%    100.00% (Unspecified)
system.caches.L2Cache_Controller.NP.L1_PUTX_old::total            6                       (Unspecified)
system.caches.L2Cache_Controller.SS.L1_GET_INSTR |        3557     12.95%     12.95% |        3462     12.60%     25.55% |        3664     13.34%     38.89% |        2672      9.73%     48.61% |        3225     11.74%     60.35% |        3619     13.17%     73.53% |        3427     12.47%     86.00% |        3845     14.00%    100.00% (Unspecified)
system.caches.L2Cache_Controller.SS.L1_GET_INSTR::total        27471                       (Unspecified)
system.caches.L2Cache_Controller.SS.L1_GETS |       42439     12.78%     12.78% |       40537     12.21%     24.98% |       43783     13.18%     38.17% |       38831     11.69%     49.86% |       40792     12.28%     62.14% |       41288     12.43%     74.57% |       40897     12.31%     86.88% |       43560     13.12%    100.00% (Unspecified)
system.caches.L2Cache_Controller.SS.L1_GETS::total       332127                       (Unspecified)
system.caches.L2Cache_Controller.SS.L1_GETX |          16     47.06%     47.06% |           0      0.00%     47.06% |           0      0.00%     47.06% |           0      0.00%     47.06% |           0      0.00%     47.06% |           0      0.00%     47.06% |          15     44.12%     91.18% |           3      8.82%    100.00% (Unspecified)
system.caches.L2Cache_Controller.SS.L1_GETX::total           34                       (Unspecified)
system.caches.L2Cache_Controller.SS.L1_UPGRADE |         691     11.38%     11.38% |         705     11.61%     22.99% |         688     11.33%     34.32% |         737     12.14%     46.46% |         722     11.89%     58.35% |         729     12.01%     70.36% |         864     14.23%     84.58% |         936     15.42%    100.00% (Unspecified)
system.caches.L2Cache_Controller.SS.L1_UPGRADE::total         6072                       (Unspecified)
system.caches.L2Cache_Controller.SS.L1_PUTX |           0      0.00%      0.00% |           0      0.00%      0.00% |           1    100.00%    100.00% |           0      0.00%    100.00% |           0      0.00%    100.00% |           0      0.00%    100.00% |           0      0.00%    100.00% |           0      0.00%    100.00% (Unspecified)
system.caches.L2Cache_Controller.SS.L1_PUTX::total            1                       (Unspecified)
system.caches.L2Cache_Controller.SS.L2_Replacement |         734     12.89%     12.89% |         716     12.57%     25.46% |         668     11.73%     37.18% |         723     12.69%     49.88% |         711     12.48%     62.36% |         702     12.32%     74.68% |         728     12.78%     87.46% |         714     12.54%    100.00% (Unspecified)
system.caches.L2Cache_Controller.SS.L2_Replacement::total         5696                       (Unspecified)
system.caches.L2Cache_Controller.SS.L2_Replacement_clean |        9374     12.78%     12.78% |        9334     12.73%     25.51% |        9165     12.50%     38.00% |        8899     12.13%     50.14% |        9014     12.29%     62.43% |        9075     12.37%     74.80% |        8862     12.08%     86.89% |        9618     13.11%    100.00% (Unspecified)
system.caches.L2Cache_Controller.SS.L2_Replacement_clean::total        73341                       (Unspecified)
system.caches.L2Cache_Controller.M.L1_GET_INSTR |           5     12.20%     12.20% |           6     14.63%     26.83% |           6     14.63%     41.46% |           6     14.63%     56.10% |           7     17.07%     73.17% |           4      9.76%     82.93% |           2      4.88%     87.80% |           5     12.20%    100.00% (Unspecified)
system.caches.L2Cache_Controller.M.L1_GET_INSTR::total           41                       (Unspecified)
system.caches.L2Cache_Controller.M.L1_GETS |       11684     13.10%     13.10% |       11372     12.75%     25.85% |       10999     12.33%     38.18% |       10684     11.98%     50.16% |       11024     12.36%     62.52% |       11095     12.44%     74.96% |       10998     12.33%     87.30% |       11331     12.70%    100.00% (Unspecified)
system.caches.L2Cache_Controller.M.L1_GETS::total        89187                       (Unspecified)
system.caches.L2Cache_Controller.M.L1_GETX |          51     11.41%     11.41% |          28      6.26%     17.67% |          20      4.47%     22.15% |          18      4.03%     26.17% |          58     12.98%     39.15% |         108     24.16%     63.31% |          62     13.87%     77.18% |         102     22.82%    100.00% (Unspecified)
system.caches.L2Cache_Controller.M.L1_GETX::total          447                       (Unspecified)
system.caches.L2Cache_Controller.M.L2_Replacement |       40255     12.57%     12.57% |       39757     12.41%     24.98% |       39395     12.30%     37.28% |       39954     12.48%     49.76% |       39868     12.45%     62.21% |       40598     12.68%     74.88% |       40006     12.49%     87.37% |       40437     12.63%    100.00% (Unspecified)
system.caches.L2Cache_Controller.M.L2_Replacement::total       320270                       (Unspecified)
system.caches.L2Cache_Controller.M.L2_Replacement_clean |      264114     12.52%     12.52% |      263888     12.51%     25.03% |      263871     12.51%     37.54% |      263247     12.48%     50.03% |      263305     12.48%     62.51% |      263380     12.49%     75.00% |      263888     12.51%     87.51% |      263443     12.49%    100.00% (Unspecified)
system.caches.L2Cache_Controller.M.L2_Replacement_clean::total      2109136                       (Unspecified)
system.caches.L2Cache_Controller.MT.L1_GET_INSTR |           0      0.00%      0.00% |           1    100.00%    100.00% |           0      0.00%    100.00% |           0      0.00%    100.00% |           0      0.00%    100.00% |           0      0.00%    100.00% |           0      0.00%    100.00% |           0      0.00%    100.00% (Unspecified)
system.caches.L2Cache_Controller.MT.L1_GET_INSTR::total            1                       (Unspecified)
system.caches.L2Cache_Controller.MT.L1_GETS |        9451     12.44%     12.44% |        9474     12.47%     24.90% |        9319     12.26%     37.17% |        9366     12.32%     49.49% |        9394     12.36%     61.85% |        9441     12.42%     74.28% |        9460     12.45%     86.73% |       10087     13.27%    100.00% (Unspecified)
system.caches.L2Cache_Controller.MT.L1_GETS::total        75992                       (Unspecified)
system.caches.L2Cache_Controller.MT.L1_GETX |           9      0.88%      0.88% |         906     88.65%     89.53% |           3      0.29%     89.82% |          30      2.94%     92.76% |           7      0.68%     93.44% |          31      3.03%     96.48% |           8      0.78%     97.26% |          28      2.74%    100.00% (Unspecified)
system.caches.L2Cache_Controller.MT.L1_GETX::total         1022                       (Unspecified)
system.caches.L2Cache_Controller.MT.L1_PUTX |      313057     12.55%     12.55% |      312032     12.51%     25.06% |      311201     12.48%     37.53% |      310808     12.46%     49.99% |      311177     12.47%     62.47% |      312156     12.51%     74.98% |      311865     12.50%     87.48% |      312252     12.52%    100.00% (Unspecified)
system.caches.L2Cache_Controller.MT.L1_PUTX::total      2494548                       (Unspecified)
system.caches.L2Cache_Controller.MT.L2_Replacement |          33     12.45%     12.45% |          14      5.28%     17.74% |          11      4.15%     21.89% |          42     15.85%     37.74% |          36     13.58%     51.32% |          40     15.09%     66.42% |          33     12.45%     78.87% |          56     21.13%    100.00% (Unspecified)
system.caches.L2Cache_Controller.MT.L2_Replacement::total          265                       (Unspecified)
system.caches.L2Cache_Controller.MT.L2_Replacement_clean |        5020     13.54%     13.54% |        5056     13.63%     27.17% |        4065     10.96%     38.13% |        4497     12.13%     50.26% |        4591     12.38%     62.64% |        4683     12.63%     75.27% |        4524     12.20%     87.47% |        4646     12.53%    100.00% (Unspecified)
system.caches.L2Cache_Controller.MT.L2_Replacement_clean::total        37082                       (Unspecified)
system.caches.L2Cache_Controller.M_I.L1_GET_INSTR |          27     10.76%     10.76% |          41     16.33%     27.09% |          25      9.96%     37.05% |          13      5.18%     42.23% |          71     28.29%     70.52% |           0      0.00%     70.52% |          36     14.34%     84.86% |          38     15.14%    100.00% (Unspecified)
system.caches.L2Cache_Controller.M_I.L1_GET_INSTR::total          251                       (Unspecified)
system.caches.L2Cache_Controller.M_I.L1_GETS |         120     61.22%     61.22% |          39     19.90%     81.12% |           0      0.00%     81.12% |          10      5.10%     86.22% |           0      0.00%     86.22% |           3      1.53%     87.76% |           4      2.04%     89.80% |          20     10.20%    100.00% (Unspecified)
system.caches.L2Cache_Controller.M_I.L1_GETS::total          196                       (Unspecified)
system.caches.L2Cache_Controller.M_I.L1_GETX |           1     12.50%     12.50% |           0      0.00%     12.50% |           0      0.00%     12.50% |           4     50.00%     62.50% |           0      0.00%     62.50% |           1     12.50%     75.00% |           0      0.00%     75.00% |           2     25.00%    100.00% (Unspecified)
system.caches.L2Cache_Controller.M_I.L1_GETX::total            8                       (Unspecified)
system.caches.L2Cache_Controller.M_I.Mem_Ack |      319530     12.55%     12.55% |      318765     12.52%     25.07% |      317175     12.46%     37.53% |      317362     12.47%     50.00% |      317525     12.47%     62.47% |      318478     12.51%     74.98% |      318041     12.49%     87.47% |      318914     12.53%    100.00% (Unspecified)
system.caches.L2Cache_Controller.M_I.Mem_Ack::total      2545790                       (Unspecified)
system.caches.L2Cache_Controller.MT_I.WB_Data |           9      9.09%      9.09% |           2      2.02%     11.11% |           1      1.01%     12.12% |          20     20.20%     32.32% |           3      3.03%     35.35% |          20     20.20%     55.56% |          11     11.11%     66.67% |          33     33.33%    100.00% (Unspecified)
system.caches.L2Cache_Controller.MT_I.WB_Data::total           99                       (Unspecified)
system.caches.L2Cache_Controller.MT_I.Ack_all |          24     14.46%     14.46% |          12      7.23%     21.69% |          10      6.02%     27.71% |          22     13.25%     40.96% |          33     19.88%     60.84% |          20     12.05%     72.89% |          22     13.25%     86.14% |          23     13.86%    100.00% (Unspecified)
system.caches.L2Cache_Controller.MT_I.Ack_all::total          166                       (Unspecified)
system.caches.L2Cache_Controller.MCT_I.L1_PUTX_old |           1     16.67%     16.67% |           3     50.00%     66.67% |           1     16.67%     83.33% |           0      0.00%     83.33% |           0      0.00%     83.33% |           1     16.67%    100.00% |           0      0.00%    100.00% |           0      0.00%    100.00% (Unspecified)
system.caches.L2Cache_Controller.MCT_I.L1_PUTX_old::total            6                       (Unspecified)
system.caches.L2Cache_Controller.MCT_I.WB_Data |         740     17.33%     17.33% |         594     13.91%     31.23% |         396      9.27%     40.51% |         453     10.61%     51.11% |         480     11.24%     62.35% |         575     13.46%     75.81% |         476     11.14%     86.96% |         557     13.04%    100.00% (Unspecified)
system.caches.L2Cache_Controller.MCT_I.WB_Data::total         4271                       (Unspecified)
system.caches.L2Cache_Controller.MCT_I.WB_Data_clean |           1     16.67%     16.67% |           3     50.00%     66.67% |           1     16.67%     83.33% |           0      0.00%     83.33% |           0      0.00%     83.33% |           1     16.67%    100.00% |           0      0.00%    100.00% |           0      0.00%    100.00% (Unspecified)
system.caches.L2Cache_Controller.MCT_I.WB_Data_clean::total            6                       (Unspecified)
system.caches.L2Cache_Controller.MCT_I.Ack_all |        4279     13.04%     13.04% |        4459     13.59%     26.64% |        3668     11.18%     37.82% |        4044     12.33%     50.14% |        4111     12.53%     62.68% |        4107     12.52%     75.20% |        4048     12.34%     87.54% |        4089     12.46%    100.00% (Unspecified)
system.caches.L2Cache_Controller.MCT_I.Ack_all::total        32805                       (Unspecified)
system.caches.L2Cache_Controller.I_I.L1_GET_INSTR |           0      0.00%      0.00% |           0      0.00%      0.00% |           0      0.00%      0.00% |           0      0.00%      0.00% |           1    100.00%    100.00% |           0      0.00%    100.00% |           0      0.00%    100.00% |           0      0.00%    100.00% (Unspecified)
system.caches.L2Cache_Controller.I_I.L1_GET_INSTR::total            1                       (Unspecified)
system.caches.L2Cache_Controller.I_I.L1_GETS |           0      0.00%      0.00% |           0      0.00%      0.00% |           0      0.00%      0.00% |           0      0.00%      0.00% |           0      0.00%      0.00% |           0      0.00%      0.00% |           1    100.00%    100.00% |           0      0.00%    100.00% (Unspecified)
system.caches.L2Cache_Controller.I_I.L1_GETS::total            1                       (Unspecified)
system.caches.L2Cache_Controller.I_I.Ack |       25545     13.12%     13.12% |       25034     12.86%     25.98% |       24760     12.72%     38.71% |       22850     11.74%     50.44% |       23765     12.21%     62.65% |       23939     12.30%     74.95% |       23140     11.89%     86.84% |       25614     13.16%    100.00% (Unspecified)
system.caches.L2Cache_Controller.I_I.Ack::total       194647                       (Unspecified)
system.caches.L2Cache_Controller.I_I.Ack_all |        9374     12.78%     12.78% |        9334     12.73%     25.51% |        9165     12.50%     38.00% |        8899     12.13%     50.14% |        9014     12.29%     62.43% |        9075     12.37%     74.80% |        8862     12.08%     86.89% |        9618     13.11%    100.00% (Unspecified)
system.caches.L2Cache_Controller.I_I.Ack_all::total        73341                       (Unspecified)
system.caches.L2Cache_Controller.S_I.Ack |        2664     14.36%     14.36% |        2352     12.68%     27.03% |        2160     11.64%     38.67% |        2303     12.41%     51.08% |        2160     11.64%     62.72% |        2194     11.82%     74.55% |        2435     13.12%     87.67% |        2288     12.33%    100.00% (Unspecified)
system.caches.L2Cache_Controller.S_I.Ack::total        18556                       (Unspecified)
system.caches.L2Cache_Controller.S_I.Ack_all |         734     12.89%     12.89% |         716     12.57%     25.46% |         668     11.73%     37.18% |         723     12.69%     49.88% |         711     12.48%     62.36% |         702     12.32%     74.68% |         728     12.78%     87.46% |         714     12.54%    100.00% (Unspecified)
system.caches.L2Cache_Controller.S_I.Ack_all::total         5696                       (Unspecified)
system.caches.L2Cache_Controller.ISS.L1_GETS |         336     24.62%     24.62% |         211     15.46%     40.07% |         186     13.63%     53.70% |         137     10.04%     63.74% |         110      8.06%     71.79% |         113      8.28%     80.07% |          60      4.40%     84.47% |         212     15.53%    100.00% (Unspecified)
system.caches.L2Cache_Controller.ISS.L1_GETS::total         1365                       (Unspecified)
system.caches.L2Cache_Controller.ISS.L1_GETX |           0      0.00%      0.00% |           0      0.00%      0.00% |           0      0.00%      0.00% |           0      0.00%      0.00% |           0      0.00%      0.00% |           0      0.00%      0.00% |           2    100.00%    100.00% |           0      0.00%    100.00% (Unspecified)
system.caches.L2Cache_Controller.ISS.L1_GETX::total            2                       (Unspecified)
system.caches.L2Cache_Controller.ISS.Mem_Data |      317149     12.53%     12.53% |      316837     12.52%     25.05% |      315899     12.48%     37.53% |      315889     12.48%     50.01% |      315804     12.48%     62.49% |      316170     12.49%     74.98% |      316399     12.50%     87.48% |      316778     12.52%    100.00% (Unspecified)
system.caches.L2Cache_Controller.ISS.Mem_Data::total      2530925                       (Unspecified)
system.caches.L2Cache_Controller.IS.L1_GET_INSTR |        1420     13.80%     13.80% |        1518     14.76%     28.56% |        1207     11.73%     40.29% |         982      9.55%     49.84% |        1479     14.38%     64.22% |        1405     13.66%     77.87% |        1165     11.32%     89.20% |        1111     10.80%    100.00% (Unspecified)
system.caches.L2Cache_Controller.IS.L1_GET_INSTR::total        10287                       (Unspecified)
system.caches.L2Cache_Controller.IS.L1_GETS |         791     32.30%     32.30% |         508     20.74%     53.04% |         232      9.47%     62.52% |         200      8.17%     70.68% |         120      4.90%     75.58% |         201      8.21%     83.79% |         140      5.72%     89.51% |         257     10.49%    100.00% (Unspecified)
system.caches.L2Cache_Controller.IS.L1_GETS::total         2449                       (Unspecified)
system.caches.L2Cache_Controller.IS.Mem_Data |        1254     15.24%     15.24% |        1149     13.96%     29.21% |        1078     13.10%     42.31% |         862     10.48%     52.78% |         942     11.45%     64.23% |         937     11.39%     75.62% |         883     10.73%     86.35% |        1123     13.65%    100.00% (Unspecified)
system.caches.L2Cache_Controller.IS.Mem_Data::total         8228                       (Unspecified)
system.caches.L2Cache_Controller.IM.L1_GETX |           0      0.00%      0.00% |          15    100.00%    100.00% |           0      0.00%    100.00% |           0      0.00%    100.00% |           0      0.00%    100.00% |           0      0.00%    100.00% |           0      0.00%    100.00% |           0      0.00%    100.00% (Unspecified)
system.caches.L2Cache_Controller.IM.L1_GETX::total           15                       (Unspecified)
system.caches.L2Cache_Controller.IM.Mem_Data |        1126     16.97%     16.97% |         779     11.74%     28.71% |         198      2.98%     31.69% |         611      9.21%     40.90% |         779     11.74%     52.64% |        1371     20.66%     73.30% |         759     11.44%     84.73% |        1013     15.27%    100.00% (Unspecified)
system.caches.L2Cache_Controller.IM.Mem_Data::total         6636                       (Unspecified)
system.caches.L2Cache_Controller.SS_MB.L1_GETS |          16      5.02%      5.02% |           0      0.00%      5.02% |           0      0.00%      5.02% |           0      0.00%      5.02% |          40     12.54%     17.55% |           0      0.00%     17.55% |         247     77.43%     94.98% |          16      5.02%    100.00% (Unspecified)
system.caches.L2Cache_Controller.SS_MB.L1_GETS::total          319                       (Unspecified)
system.caches.L2Cache_Controller.SS_MB.L1_UPGRADE |           0      0.00%      0.00% |           0      0.00%      0.00% |           0      0.00%      0.00% |           0      0.00%      0.00% |           0      0.00%      0.00% |           0      0.00%      0.00% |           0      0.00%      0.00% |           6    100.00%    100.00% (Unspecified)
system.caches.L2Cache_Controller.SS_MB.L1_UPGRADE::total            6                       (Unspecified)
system.caches.L2Cache_Controller.SS_MB.Exclusive_Unblock |         707     11.58%     11.58% |         705     11.55%     23.12% |         688     11.27%     34.39% |         737     12.07%     46.46% |         722     11.82%     58.29% |         729     11.94%     70.23% |         879     14.40%     84.62% |         939     15.38%    100.00% (Unspecified)
system.caches.L2Cache_Controller.SS_MB.Exclusive_Unblock::total         6106                       (Unspecified)
system.caches.L2Cache_Controller.MT_MB.L1_GETS |          13     41.94%     41.94% |           1      3.23%     45.16% |           8     25.81%     70.97% |           3      9.68%     80.65% |           4     12.90%     93.55% |           0      0.00%     93.55% |           2      6.45%    100.00% |           0      0.00%    100.00% (Unspecified)
system.caches.L2Cache_Controller.MT_MB.L1_GETS::total           31                       (Unspecified)
system.caches.L2Cache_Controller.MT_MB.L1_GETX |           0      0.00%      0.00% |          68     62.96%     62.96% |           0      0.00%     62.96% |           0      0.00%     62.96% |           0      0.00%     62.96% |           0      0.00%     62.96% |           0      0.00%     62.96% |          40     37.04%    100.00% (Unspecified)
system.caches.L2Cache_Controller.MT_MB.L1_GETX::total          108                       (Unspecified)
system.caches.L2Cache_Controller.MT_MB.Exclusive_Unblock |      330019     12.56%     12.56% |      329922     12.55%     25.11% |      327119     12.45%     37.56% |      327232     12.45%     50.01% |      327672     12.47%     62.47% |      328775     12.51%     74.98% |      328226     12.49%     87.47% |      329252     12.53%    100.00% (Unspecified)
system.caches.L2Cache_Controller.MT_MB.Exclusive_Unblock::total      2628217                       (Unspecified)
system.caches.L2Cache_Controller.MT_IIB.L1_GET_INSTR |           0      0.00%      0.00% |           2    100.00%    100.00% |           0      0.00%    100.00% |           0      0.00%    100.00% |           0      0.00%    100.00% |           0      0.00%    100.00% |           0      0.00%    100.00% |           0      0.00%    100.00% (Unspecified)
system.caches.L2Cache_Controller.MT_IIB.L1_GET_INSTR::total            2                       (Unspecified)
system.caches.L2Cache_Controller.MT_IIB.L1_GETS |          55     13.61%     13.61% |          22      5.45%     19.06% |          11      2.72%     21.78% |           0      0.00%     21.78% |          36      8.91%     30.69% |          12      2.97%     33.66% |         233     57.67%     91.34% |          35      8.66%    100.00% (Unspecified)
system.caches.L2Cache_Controller.MT_IIB.L1_GETS::total          404                       (Unspecified)
system.caches.L2Cache_Controller.MT_IIB.L1_PUTX |           0      0.00%      0.00% |           0      0.00%      0.00% |           1    100.00%    100.00% |           0      0.00%    100.00% |           0      0.00%    100.00% |           0      0.00%    100.00% |           0      0.00%    100.00% |           0      0.00%    100.00% (Unspecified)
system.caches.L2Cache_Controller.MT_IIB.L1_PUTX::total            1                       (Unspecified)
system.caches.L2Cache_Controller.MT_IIB.WB_Data |         676     12.25%     12.25% |         663     12.01%     24.26% |         593     10.74%     35.00% |         668     12.10%     47.10% |         636     11.52%     58.62% |         637     11.54%     70.16% |         767     13.89%     84.06% |         880     15.94%    100.00% (Unspecified)
system.caches.L2Cache_Controller.MT_IIB.WB_Data::total         5520                       (Unspecified)
system.caches.L2Cache_Controller.MT_IIB.WB_Data_clean |        8775     12.45%     12.45% |        8811     12.50%     24.96% |        8726     12.38%     37.34% |        8692     12.34%     49.68% |        8752     12.42%     62.10% |        8804     12.50%     74.60% |        8693     12.34%     86.93% |        9207     13.07%    100.00% (Unspecified)
system.caches.L2Cache_Controller.MT_IIB.WB_Data_clean::total        70460                       (Unspecified)
system.caches.L2Cache_Controller.MT_IIB.Unblock |           0      0.00%      0.00% |           1      7.69%      7.69% |           0      0.00%      7.69% |           6     46.15%     53.85% |           6     46.15%    100.00% |           0      0.00%    100.00% |           0      0.00%    100.00% |           0      0.00%    100.00% (Unspecified)
system.caches.L2Cache_Controller.MT_IIB.Unblock::total           13                       (Unspecified)
system.caches.L2Cache_Controller.MT_IB.WB_Data |           0      0.00%      0.00% |           0      0.00%      0.00% |           0      0.00%      0.00% |           6     50.00%     50.00% |           6     50.00%    100.00% |           0      0.00%    100.00% |           0      0.00%    100.00% |           0      0.00%    100.00% (Unspecified)
system.caches.L2Cache_Controller.MT_IB.WB_Data::total           12                       (Unspecified)
system.caches.L2Cache_Controller.MT_IB.WB_Data_clean |           0      0.00%      0.00% |           1    100.00%    100.00% |           0      0.00%    100.00% |           0      0.00%    100.00% |           0      0.00%    100.00% |           0      0.00%    100.00% |           0      0.00%    100.00% |           0      0.00%    100.00% (Unspecified)
system.caches.L2Cache_Controller.MT_IB.WB_Data_clean::total            1                       (Unspecified)
system.caches.L2Cache_Controller.MT_SB.L1_GETS |           9     32.14%     32.14% |          13     46.43%     78.57% |           0      0.00%     78.57% |           1      3.57%     82.14% |           0      0.00%     82.14% |           0      0.00%     82.14% |           4     14.29%     96.43% |           1      3.57%    100.00% (Unspecified)
system.caches.L2Cache_Controller.MT_SB.L1_GETS::total           28                       (Unspecified)
system.caches.L2Cache_Controller.MT_SB.L1_UPGRADE |           0      0.00%      0.00% |           0      0.00%      0.00% |           0      0.00%      0.00% |           1      2.27%      2.27% |           0      0.00%      2.27% |           1      2.27%      4.55% |          42     95.45%    100.00% |           0      0.00%    100.00% (Unspecified)
system.caches.L2Cache_Controller.MT_SB.L1_UPGRADE::total           44                       (Unspecified)
system.caches.L2Cache_Controller.MT_SB.Unblock |        9451     12.44%     12.44% |        9474     12.47%     24.91% |        9319     12.27%     37.17% |        9360     12.32%     49.49% |        9388     12.36%     61.85% |        9441     12.43%     74.27% |        9460     12.45%     86.72% |       10087     13.28%    100.00% (Unspecified)
system.caches.L2Cache_Controller.MT_SB.Unblock::total        75980                       (Unspecified)
system.caches.RequestType.LD.latency_hist_seqr::bucket_size          512                       (Unspecified)
system.caches.RequestType.LD.latency_hist_seqr::max_bucket         5119                       (Unspecified)
system.caches.RequestType.LD.latency_hist_seqr::samples     78709315                       (Unspecified)
system.caches.RequestType.LD.latency_hist_seqr::mean    14.194558                       (Unspecified)
system.caches.RequestType.LD.latency_hist_seqr::gmean     1.231075                       (Unspecified)
system.caches.RequestType.LD.latency_hist_seqr::stdev    83.839075                       (Unspecified)
system.caches.RequestType.LD.latency_hist_seqr |    78332064     99.52%     99.52% |      340522      0.43%     99.95% |        2727      0.00%     99.96% |       13022      0.02%     99.97% |       19333      0.02%    100.00% |        1611      0.00%    100.00% |          33      0.00%    100.00% |           3      0.00%    100.00% |           0      0.00%    100.00% |           0      0.00%    100.00% (Unspecified)
system.caches.RequestType.LD.latency_hist_seqr::total     78709315                       (Unspecified)
system.caches.RequestType.LD.hit_latency_hist_seqr::bucket_size            1                       (Unspecified)
system.caches.RequestType.LD.hit_latency_hist_seqr::max_bucket            9                       (Unspecified)
system.caches.RequestType.LD.hit_latency_hist_seqr::samples     75675905                       (Unspecified)
system.caches.RequestType.LD.hit_latency_hist_seqr::mean     1.000508                       (Unspecified)
system.caches.RequestType.LD.hit_latency_hist_seqr::gmean     1.000352                       (Unspecified)
system.caches.RequestType.LD.hit_latency_hist_seqr::stdev     0.022528                       (Unspecified)
system.caches.RequestType.LD.hit_latency_hist_seqr |           0      0.00%      0.00% |    75637479     99.95%     99.95% |       38426      0.05%    100.00% |           0      0.00%    100.00% |           0      0.00%    100.00% |           0      0.00%    100.00% |           0      0.00%    100.00% |           0      0.00%    100.00% |           0      0.00%    100.00% |           0      0.00%    100.00% (Unspecified)
system.caches.RequestType.LD.hit_latency_hist_seqr::total     75675905                       (Unspecified)
system.caches.RequestType.LD.miss_latency_hist_seqr::bucket_size          512                       (Unspecified)
system.caches.RequestType.LD.miss_latency_hist_seqr::max_bucket         5119                       (Unspecified)
system.caches.RequestType.LD.miss_latency_hist_seqr::samples      3033410                       (Unspecified)
system.caches.RequestType.LD.miss_latency_hist_seqr::mean   343.352729                       (Unspecified)
system.caches.RequestType.LD.miss_latency_hist_seqr::gmean   218.193308                       (Unspecified)
system.caches.RequestType.LD.miss_latency_hist_seqr::stdev   264.000941                       (Unspecified)
system.caches.RequestType.LD.miss_latency_hist_seqr |     2656159     87.56%     87.56% |      340522     11.23%     98.79% |        2727      0.09%     98.88% |       13022      0.43%     99.31% |       19333      0.64%     99.95% |        1611      0.05%    100.00% |          33      0.00%    100.00% |           3      0.00%    100.00% |           0      0.00%    100.00% |           0      0.00%    100.00% (Unspecified)
system.caches.RequestType.LD.miss_latency_hist_seqr::total      3033410                       (Unspecified)
system.caches.RequestType.ST.latency_hist_seqr::bucket_size          512                       (Unspecified)
system.caches.RequestType.ST.latency_hist_seqr::max_bucket         5119                       (Unspecified)
system.caches.RequestType.ST.latency_hist_seqr::samples      2537293                       (Unspecified)
system.caches.RequestType.ST.latency_hist_seqr::mean     1.940193                       (Unspecified)
system.caches.RequestType.ST.latency_hist_seqr::gmean     1.148967                       (Unspecified)
system.caches.RequestType.ST.latency_hist_seqr::stdev    24.728371                       (Unspecified)
system.caches.RequestType.ST.latency_hist_seqr |     2536269     99.96%     99.96% |         742      0.03%     99.99% |         109      0.00%     99.99% |         124      0.00%    100.00% |          35      0.00%    100.00% |           7      0.00%    100.00% |           7      0.00%    100.00% |           0      0.00%    100.00% |           0      0.00%    100.00% |           0      0.00%    100.00% (Unspecified)
system.caches.RequestType.ST.latency_hist_seqr::total      2537293                       (Unspecified)
system.caches.RequestType.ST.hit_latency_hist_seqr::bucket_size          128                       (Unspecified)
system.caches.RequestType.ST.hit_latency_hist_seqr::max_bucket         1279                       (Unspecified)
system.caches.RequestType.ST.hit_latency_hist_seqr::samples      2527628                       (Unspecified)
system.caches.RequestType.ST.hit_latency_hist_seqr::mean     1.179670                       (Unspecified)
[...]
system.o3Cpu7.iew.memOrderViolationEvents          116                       # Number of memory order violations (Count)
system.o3Cpu7.iew.predictedTakenIncorrect       356264                       # Number of branches that were predicted taken incorrectly (Count)
system.o3Cpu7.iew.predictedNotTakenIncorrect       375929                       # Number of branches that were predicted not taken incorrectly (Count)
system.o3Cpu7.iew.branchMispredicts            732193                       # Number of branch mispredicts detected at execute (Count)
system.o3Cpu7.iew.instsToCommit              65115117                       # Cumulative count of insts sent to commit (Count)
system.o3Cpu7.iew.writebackCount             64703948                       # Cumulative count of insts written-back (Count)
system.o3Cpu7.iew.producerInst               52614666                       # Number of instructions producing a value (Count)
system.o3Cpu7.iew.consumerInst               77075505                       # Number of instructions consuming a value (Count)
system.o3Cpu7.iew.wbRate                     0.475321                       # Insts written-back per cycle ((Count/Cycle))
system.o3Cpu7.iew.wbFanout                   0.682638                       # Average fanout of values written-back ((Count/Count))
system.o3Cpu7.interrupts.clk_domain.clock         3200                       # Clock period in ticks (Tick)
system.o3Cpu7.lsq0.forwLoads                   149667                       # Number of loads that had data forwarded from stores (Count)
system.o3Cpu7.lsq0.squashedLoads              3889073                       # Number of loads squashed (Count)
system.o3Cpu7.lsq0.ignoredResponses                31                       # Number of memory responses ignored because the instruction is squashed (Count)
system.o3Cpu7.lsq0.memOrderViolation              116                       # Number of memory ordering violations (Count)
system.o3Cpu7.lsq0.squashedStores              336513                       # Number of stores squashed (Count)
system.o3Cpu7.lsq0.rescheduledLoads                22                       # Number of loads that were rescheduled (Count)
system.o3Cpu7.lsq0.blockedByCache                   2                       # Number of times an access to memory failed due to the cache being blocked (Count)
system.o3Cpu7.lsq0.loadToUse::samples         8270843                       # Distribution of cycle latency between the first time a load is issued and its completion (Unspecified)
system.o3Cpu7.lsq0.loadToUse::mean          25.404961                       # Distribution of cycle latency between the first time a load is issued and its completion (Unspecified)
system.o3Cpu7.lsq0.loadToUse::stdev        104.331105                       # Distribution of cycle latency between the first time a load is issued and its completion (Unspecified)
system.o3Cpu7.lsq0.loadToUse::0-9             7687643     92.95%     92.95% # Distribution of cycle latency between the first time a load is issued and its completion (Unspecified)
system.o3Cpu7.lsq0.loadToUse::10-19             36697      0.44%     93.39% # Distribution of cycle latency between the first time a load is issued and its completion (Unspecified)
system.o3Cpu7.lsq0.loadToUse::20-29             25873      0.31%     93.71% # Distribution of cycle latency between the first time a load is issued and its completion (Unspecified)
system.o3Cpu7.lsq0.loadToUse::30-39              1477      0.02%     93.72% # Distribution of cycle latency between the first time a load is issued and its completion (Unspecified)
system.o3Cpu7.lsq0.loadToUse::40-49               938      0.01%     93.73% # Distribution of cycle latency between the first time a load is issued and its completion (Unspecified)
system.o3Cpu7.lsq0.loadToUse::50-59               521      0.01%     93.74% # Distribution of cycle latency between the first time a load is issued and its completion (Unspecified)
system.o3Cpu7.lsq0.loadToUse::60-69               409      0.00%     93.75% # Distribution of cycle latency between the first time a load is issued and its completion (Unspecified)
system.o3Cpu7.lsq0.loadToUse::70-79               549      0.01%     93.75% # Distribution of cycle latency between the first time a load is issued and its completion (Unspecified)
system.o3Cpu7.lsq0.loadToUse::80-89               429      0.01%     93.76% # Distribution of cycle latency between the first time a load is issued and its completion (Unspecified)
system.o3Cpu7.lsq0.loadToUse::90-99               459      0.01%     93.76% # Distribution of cycle latency between the first time a load is issued and its completion (Unspecified)
system.o3Cpu7.lsq0.loadToUse::100-109             469      0.01%     93.77% # Distribution of cycle latency between the first time a load is issued and its completion (Unspecified)
system.o3Cpu7.lsq0.loadToUse::110-119             516      0.01%     93.77% # Distribution of cycle latency between the first time a load is issued and its completion (Unspecified)
system.o3Cpu7.lsq0.loadToUse::120-129             626      0.01%     93.78% # Distribution of cycle latency between the first time a load is issued and its completion (Unspecified)
system.o3Cpu7.lsq0.loadToUse::130-139             736      0.01%     93.79% # Distribution of cycle latency between the first time a load is issued and its completion (Unspecified)
system.o3Cpu7.lsq0.loadToUse::140-149             977      0.01%     93.80% # Distribution of cycle latency between the first time a load is issued and its completion (Unspecified)
system.o3Cpu7.lsq0.loadToUse::150-159            1046      0.01%     93.82% # Distribution of cycle latency between the first time a load is issued and its completion (Unspecified)
system.o3Cpu7.lsq0.loadToUse::160-169            1703      0.02%     93.84% # Distribution of cycle latency between the first time a load is issued and its completion (Unspecified)
system.o3Cpu7.lsq0.loadToUse::170-179            2436      0.03%     93.87% # Distribution of cycle latency between the first time a load is issued and its completion (Unspecified)
system.o3Cpu7.lsq0.loadToUse::180-189           32144      0.39%     94.25% # Distribution of cycle latency between the first time a load is issued and its completion (Unspecified)
system.o3Cpu7.lsq0.loadToUse::190-199           21427      0.26%     94.51% # Distribution of cycle latency between the first time a load is issued and its completion (Unspecified)
system.o3Cpu7.lsq0.loadToUse::200-209           37345      0.45%     94.97% # Distribution of cycle latency between the first time a load is issued and its completion (Unspecified)
system.o3Cpu7.lsq0.loadToUse::210-219           33605      0.41%     95.37% # Distribution of cycle latency between the first time a load is issued and its completion (Unspecified)
system.o3Cpu7.lsq0.loadToUse::220-229           10154      0.12%     95.49% # Distribution of cycle latency between the first time a load is issued and its completion (Unspecified)
system.o3Cpu7.lsq0.loadToUse::230-239            7431      0.09%     95.58% # Distribution of cycle latency between the first time a load is issued and its completion (Unspecified)
system.o3Cpu7.lsq0.loadToUse::240-249            6153      0.07%     95.66% # Distribution of cycle latency between the first time a load is issued and its completion (Unspecified)
system.o3Cpu7.lsq0.loadToUse::250-259            9490      0.11%     95.77% # Distribution of cycle latency between the first time a load is issued and its completion (Unspecified)
system.o3Cpu7.lsq0.loadToUse::260-269            7816      0.09%     95.87% # Distribution of cycle latency between the first time a load is issued and its completion (Unspecified)
system.o3Cpu7.lsq0.loadToUse::270-279            9899      0.12%     95.99% # Distribution of cycle latency between the first time a load is issued and its completion (Unspecified)
system.o3Cpu7.lsq0.loadToUse::280-289            9419      0.11%     96.10% # Distribution of cycle latency between the first time a load is issued and its completion (Unspecified)
system.o3Cpu7.lsq0.loadToUse::290-299            6935      0.08%     96.19% # Distribution of cycle latency between the first time a load is issued and its completion (Unspecified)
system.o3Cpu7.lsq0.loadToUse::overflows        315521      3.81%    100.00% # Distribution of cycle latency between the first time a load is issued and its completion (Unspecified)
system.o3Cpu7.lsq0.loadToUse::min_value             2                       # Distribution of cycle latency between the first time a load is issued and its completion (Unspecified)
system.o3Cpu7.lsq0.loadToUse::max_value          3925                       # Distribution of cycle latency between the first time a load is issued and its completion (Unspecified)
system.o3Cpu7.lsq0.loadToUse::total           8270843                       # Distribution of cycle latency between the first time a load is issued and its completion (Unspecified)
system.o3Cpu7.mmu.dtb.rdAccesses             11013992                       # TLB accesses on read requests (Count)
system.o3Cpu7.mmu.dtb.wrAccesses               473223                       # TLB accesses on write requests (Count)
system.o3Cpu7.mmu.dtb.rdMisses                  43517                       # TLB misses on read requests (Count)
system.o3Cpu7.mmu.dtb.wrMisses                    890                       # TLB misses on write requests (Count)
system.o3Cpu7.mmu.dtb.walker.power_state.pwrStateResidencyTicks::UNDEFINED  28342573199                       # Cumulative time (in ticks) in various power states (Tick)
system.o3Cpu7.mmu.itb.rdAccesses                    0                       # TLB accesses on read requests (Count)
system.o3Cpu7.mmu.itb.wrAccesses              9954943                       # TLB accesses on write requests (Count)
system.o3Cpu7.mmu.itb.rdMisses                      0                       # TLB misses on read requests (Count)
system.o3Cpu7.mmu.itb.wrMisses                    169                       # TLB misses on write requests (Count)
system.o3Cpu7.mmu.itb.walker.power_state.pwrStateResidencyTicks::UNDEFINED  28342573199                       # Cumulative time (in ticks) in various power states (Tick)
system.o3Cpu7.power_state.numTransitions            2                       # Number of power state transitions (Count)
system.o3Cpu7.power_state.ticksClkGated::samples            1                       # Distribution of time spent in the clock gated state (Tick)
system.o3Cpu7.power_state.ticksClkGated::mean    107228800                       # Distribution of time spent in the clock gated state (Tick)
system.o3Cpu7.power_state.ticksClkGated::1000-5e+10            1    100.00%    100.00% # Distribution of time spent in the clock gated state (Tick)
system.o3Cpu7.power_state.ticksClkGated::min_value    107228800                       # Distribution of time spent in the clock gated state (Tick)
system.o3Cpu7.power_state.ticksClkGated::max_value    107228800                       # Distribution of time spent in the clock gated state (Tick)
system.o3Cpu7.power_state.ticksClkGated::total            1                       # Distribution of time spent in the clock gated state (Tick)
system.o3Cpu7.power_state.pwrStateResidencyTicks::ON  15743894200                       # Cumulative time (in ticks) in various power states (Tick)
system.o3Cpu7.power_state.pwrStateResidencyTicks::CLK_GATED    107228800                       # Cumulative time (in ticks) in various power states (Tick)
system.o3Cpu7.power_state.pwrStateResidencyTicks::OFF  12491450199                       # Cumulative time (in ticks) in various power states (Tick)
system.o3Cpu7.rename.squashCycles              713636                       # Number of cycles rename is squashing (Cycle)
system.o3Cpu7.rename.idleCycles               8339641                       # Number of cycles rename is idle (Cycle)
system.o3Cpu7.rename.blockCycles             98114401                       # Number of cycles rename is blocking (Cycle)
system.o3Cpu7.rename.serializeStallCycles       178789                       # count of cycles rename stalled for serializing inst (Cycle)
system.o3Cpu7.rename.runCycles               21090809                       # Number of cycles rename is running (Cycle)
system.o3Cpu7.rename.unblockCycles            7525626                       # Number of cycles rename is unblocking (Cycle)
system.o3Cpu7.rename.renamedInsts            76829898                       # Number of instructions processed by rename (Count)
system.o3Cpu7.rename.ROBFullEvents             380942                       # Number of times rename has blocked due to ROB full (Count)
system.o3Cpu7.rename.IQFullEvents             1391747                       # Number of times rename has blocked due to IQ full (Count)
system.o3Cpu7.rename.LQFullEvents             5590499                       # Number of times rename has blocked due to LQ full (Count)
system.o3Cpu7.rename.SQFullEvents               46134                       # Number of times rename has blocked due to SQ full (Count)
system.o3Cpu7.rename.renamedOperands        146269193                       # Number of destination operands rename has renamed (Count)
system.o3Cpu7.rename.lookups                272988088                       # Number of register rename lookups that rename has made (Count)
system.o3Cpu7.rename.intLookups             100039774                       # Number of integer rename lookups (Count)
system.o3Cpu7.rename.fpLookups                     66                       # Number of floating rename lookups (Count)
system.o3Cpu7.rename.committedMaps           96022299                       # Number of HB maps that are committed (Count)
system.o3Cpu7.rename.undoneMaps              50246749                       # Number of HB maps that are undone due to squashing (Count)
system.o3Cpu7.rename.serializing                 1329                       # count of serializing insts renamed (Count)
system.o3Cpu7.rename.tempSerializing             1343                       # count of temporary serializing insts renamed (Count)
system.o3Cpu7.rename.skidInsts                4670532                       # count of insts added to the skid buffer (Count)
system.o3Cpu7.rob.reads                     194818128                       # The number of ROB reads (Count)
system.o3Cpu7.rob.writes                    153190381                       # The number of ROB writes (Count)
system.o3Cpu7.thread_0.numInsts              32326719                       # Number of Instructions committed (Count)
system.o3Cpu7.thread_0.numOps                51138780                       # Number of Ops committed (Count)
system.o3Cpu7.thread_0.numMemRefs                   0                       # Number of Memory References (Count)
system.pc.bad_addr.power_state.pwrStateResidencyTicks::UNDEFINED  28342573199                       # Cumulative time (in ticks) in various power states (Tick)
system.pc.com_1.power_state.pwrStateResidencyTicks::UNDEFINED  28342573199                       # Cumulative time (in ticks) in various power states (Tick)
system.pc.default_bus.power_state.pwrStateResidencyTicks::UNDEFINED  28342573199                       # Cumulative time (in ticks) in various power states (Tick)
system.pc.empty_isa.power_state.pwrStateResidencyTicks::UNDEFINED  28342573199                       # Cumulative time (in ticks) in various power states (Tick)
system.pc.fake_com_2.power_state.pwrStateResidencyTicks::UNDEFINED  28342573199                       # Cumulative time (in ticks) in various power states (Tick)
system.pc.fake_com_3.power_state.pwrStateResidencyTicks::UNDEFINED  28342573199                       # Cumulative time (in ticks) in various power states (Tick)
system.pc.fake_com_4.power_state.pwrStateResidencyTicks::UNDEFINED  28342573199                       # Cumulative time (in ticks) in various power states (Tick)
system.pc.fake_floppy.power_state.pwrStateResidencyTicks::UNDEFINED  28342573199                       # Cumulative time (in ticks) in various power states (Tick)
system.pc.pci_host.power_state.pwrStateResidencyTicks::UNDEFINED  28342573199                       # Cumulative time (in ticks) in various power states (Tick)
system.pc.south_bridge.cmos.power_state.pwrStateResidencyTicks::UNDEFINED  28342573199                       # Cumulative time (in ticks) in various power states (Tick)
system.pc.south_bridge.dma1.power_state.pwrStateResidencyTicks::UNDEFINED  28342573199                       # Cumulative time (in ticks) in various power states (Tick)
system.pc.south_bridge.ide.disks0.IdeDisk.dmaReadFullPages            0                       # Number of full page size DMA reads (not PRD). (Count)
system.pc.south_bridge.ide.disks0.IdeDisk.dmaReadBytes            0                       # Number of bytes transfered via DMA reads (not PRD). (Byte)
system.pc.south_bridge.ide.disks0.IdeDisk.dmaReadTxs            0                       # Number of DMA read transactions (not PRD). (Count)
system.pc.south_bridge.ide.disks0.IdeDisk.dmaWriteFullPages            0                       # Number of full page size DMA writes. (Count)
system.pc.south_bridge.ide.disks0.IdeDisk.dmaWriteBytes            0                       # Number of bytes transfered via DMA writes. (Byte)
system.pc.south_bridge.ide.disks0.IdeDisk.dmaWriteTxs            0                       # Number of DMA write transactions. (Count)
system.pc.south_bridge.ide.disks1.IdeDisk.dmaReadFullPages            0                       # Number of full page size DMA reads (not PRD). (Count)
system.pc.south_bridge.ide.disks1.IdeDisk.dmaReadBytes            0                       # Number of bytes transfered via DMA reads (not PRD). (Byte)
system.pc.south_bridge.ide.disks1.IdeDisk.dmaReadTxs            0                       # Number of DMA read transactions (not PRD). (Count)
system.pc.south_bridge.ide.disks1.IdeDisk.dmaWriteFullPages            0                       # Number of full page size DMA writes. (Count)
system.pc.south_bridge.ide.disks1.IdeDisk.dmaWriteBytes            0                       # Number of bytes transfered via DMA writes. (Byte)
system.pc.south_bridge.ide.disks1.IdeDisk.dmaWriteTxs            0                       # Number of DMA write transactions. (Count)
system.pc.south_bridge.ide.power_state.pwrStateResidencyTicks::UNDEFINED  28342573199                       # Cumulative time (in ticks) in various power states (Tick)
system.pc.south_bridge.io_apic.power_state.pwrStateResidencyTicks::UNDEFINED  28342573199                       # Cumulative time (in ticks) in various power states (Tick)
system.pc.south_bridge.keyboard.power_state.pwrStateResidencyTicks::UNDEFINED  28342573199                       # Cumulative time (in ticks) in various power states (Tick)
system.pc.south_bridge.pic1.power_state.pwrStateResidencyTicks::UNDEFINED  28342573199                       # Cumulative time (in ticks) in various power states (Tick)
system.pc.south_bridge.pic2.power_state.pwrStateResidencyTicks::UNDEFINED  28342573199                       # Cumulative time (in ticks) in various power states (Tick)
system.pc.south_bridge.pit.power_state.pwrStateResidencyTicks::UNDEFINED  28342573199                       # Cumulative time (in ticks) in various power states (Tick)
system.pc.south_bridge.speaker.power_state.pwrStateResidencyTicks::UNDEFINED  28342573199                       # Cumulative time (in ticks) in various power states (Tick)
system.workload.inst.arm                            0                       # number of arm instructions executed (Count)
system.workload.inst.quiesce                        0                       # number of quiesce instructions executed (Count)

---------- End Simulation Statistics   ----------
