
---------- Begin Simulation Statistics ----------
simSeconds                                   0.055415                       # Number of seconds simulated (Second)
simTicks                                  55414567560                       # Number of ticks simulated (Tick)
finalTick                                215562018358800                       # Number of ticks from beginning of simulation (restored from checkpoints and never reset) (Tick)
simFreq                                  1000000000000                       # The number of ticks per simulated second ((Tick/Second))
hostSeconds                                   8384.44                       # Real time elapsed on the host (Second)
hostTickRate                                  6609213                       # The number of ticks simulated per host second (ticks/s) ((Tick/Second))
hostMemory                                   71797984                       # Number of bytes of host memory used (Byte)
simInsts                                    141219247                       # Number of instructions simulated (Count)
simOps                                      276599512                       # Number of ops (including micro ops) simulated (Count)
hostInstRate                                    16843                       # Simulator instruction rate (inst/s) ((Count/Second))
hostOpRate                                      32990                       # Simulator op (including micro ops) rate (op/s) ((Count/Second))
system.caches.delayHistogram::bucket_size           16                       # delay histogram for all message (Unspecified)
system.caches.delayHistogram::max_bucket          159                       # delay histogram for all message (Unspecified)
system.caches.delayHistogram::samples       145081375                       # delay histogram for all message (Unspecified)
system.caches.delayHistogram::mean           0.970794                       # delay histogram for all message (Unspecified)
system.caches.delayHistogram::stdev          3.902064                       # delay histogram for all message (Unspecified)
system.caches.delayHistogram             |   142290145     98.08%     98.08% |     2275429      1.57%     99.64% |      460355      0.32%     99.96% |       52428      0.04%    100.00% |        2933      0.00%    100.00% |          85      0.00%    100.00% |           0      0.00%    100.00% |           0      0.00%    100.00% |           0      0.00%    100.00% |           0      0.00%    100.00% # delay histogram for all message (Unspecified)
system.caches.delayHistogram::total         145081375                       # delay histogram for all message (Unspecified)
system.caches.m_outstandReqHistSeqr::bucket_size            2                       (Unspecified)
system.caches.m_outstandReqHistSeqr::max_bucket           19                       (Unspecified)
system.caches.m_outstandReqHistSeqr::samples     66154188                       (Unspecified)
system.caches.m_outstandReqHistSeqr::mean     4.319497                       (Unspecified)
system.caches.m_outstandReqHistSeqr::gmean     3.770770                       (Unspecified)
system.caches.m_outstandReqHistSeqr::stdev     2.013911                       (Unspecified)
system.caches.m_outstandReqHistSeqr      |     5439441      8.22%      8.22% |    18798258     28.42%     36.64% |    23385818     35.35%     71.99% |    14201359     21.47%     93.46% |     3970220      6.00%     99.46% |      348332      0.53%     99.98% |       10018      0.02%    100.00% |         665      0.00%    100.00% |          77      0.00%    100.00% |           0      0.00%    100.00% (Unspecified)
system.caches.m_outstandReqHistSeqr::total     66154188                       (Unspecified)
system.caches.m_latencyHistSeqr::bucket_size         1024                       (Unspecified)
system.caches.m_latencyHistSeqr::max_bucket        10239                       (Unspecified)
system.caches.m_latencyHistSeqr::samples     66188654                       (Unspecified)
system.caches.m_latencyHistSeqr::mean      117.607691                       (Unspecified)
system.caches.m_latencyHistSeqr::gmean       6.178798                       (Unspecified)
system.caches.m_latencyHistSeqr::stdev     258.428096                       (Unspecified)
system.caches.m_latencyHistSeqr          |    65804552     99.42%     99.42% |      187496      0.28%     99.70% |      193947      0.29%    100.00% |        2582      0.00%    100.00% |          72      0.00%    100.00% |           5      0.00%    100.00% |           0      0.00%    100.00% |           0      0.00%    100.00% |           0      0.00%    100.00% |           0      0.00%    100.00% (Unspecified)
system.caches.m_latencyHistSeqr::total       66188654                       (Unspecified)
system.caches.m_hitLatencyHistSeqr::bucket_size          512                       (Unspecified)
system.caches.m_hitLatencyHistSeqr::max_bucket         5119                       (Unspecified)
system.caches.m_hitLatencyHistSeqr::samples     39659370                       (Unspecified)
system.caches.m_hitLatencyHistSeqr::mean     1.023950                       (Unspecified)
system.caches.m_hitLatencyHistSeqr::gmean     1.010449                       (Unspecified)
system.caches.m_hitLatencyHistSeqr::stdev     2.527815                       (Unspecified)
system.caches.m_hitLatencyHistSeqr       |    39659147    100.00%    100.00% |         199      0.00%    100.00% |           6      0.00%    100.00% |           0      0.00%    100.00% |          14      0.00%    100.00% |           4      0.00%    100.00% |           0      0.00%    100.00% |           0      0.00%    100.00% |           0      0.00%    100.00% |           0      0.00%    100.00% (Unspecified)
system.caches.m_hitLatencyHistSeqr::total     39659370                       (Unspecified)
system.caches.m_missLatencyHistSeqr::bucket_size         1024                       (Unspecified)
system.caches.m_missLatencyHistSeqr::max_bucket        10239                       (Unspecified)
system.caches.m_missLatencyHistSeqr::samples     26529284                       (Unspecified)
system.caches.m_missLatencyHistSeqr::mean   291.891992                       (Unspecified)
system.caches.m_missLatencyHistSeqr::gmean    92.576260                       (Unspecified)
system.caches.m_missLatencyHistSeqr::stdev   340.471270                       (Unspecified)
system.caches.m_missLatencyHistSeqr      |    26145206     98.55%     98.55% |      187490      0.71%     99.26% |      193929      0.73%     99.99% |        2582      0.01%    100.00% |          72      0.00%    100.00% |           5      0.00%    100.00% |           0      0.00%    100.00% |           0      0.00%    100.00% |           0      0.00%    100.00% |           0      0.00%    100.00% (Unspecified)
system.caches.m_missLatencyHistSeqr::total     26529284                       (Unspecified)
system.caches.delayVCHist.vnet_0::bucket_size            8                       # delay histogram for vnet_0 (Unspecified)
system.caches.delayVCHist.vnet_0::max_bucket           79                       # delay histogram for vnet_0 (Unspecified)
system.caches.delayVCHist.vnet_0::samples     59141552                       # delay histogram for vnet_0 (Unspecified)
system.caches.delayVCHist.vnet_0::mean       0.236587                       # delay histogram for vnet_0 (Unspecified)
system.caches.delayVCHist.vnet_0::stdev      1.252353                       # delay histogram for vnet_0 (Unspecified)
system.caches.delayVCHist.vnet_0         |    58312547     98.60%     98.60% |      809548      1.37%     99.97% |       18698      0.03%    100.00% |         724      0.00%    100.00% |          26      0.00%    100.00% |           7      0.00%    100.00% |           2      0.00%    100.00% |           0      0.00%    100.00% |           0      0.00%    100.00% |           0      0.00%    100.00% # delay histogram for vnet_0 (Unspecified)
system.caches.delayVCHist.vnet_0::total      59141552                       # delay histogram for vnet_0 (Unspecified)
system.caches.delayVCHist.vnet_1::bucket_size           16                       # delay histogram for vnet_1 (Unspecified)
system.caches.delayVCHist.vnet_1::max_bucket          159                       # delay histogram for vnet_1 (Unspecified)
system.caches.delayVCHist.vnet_1::samples     76529085                       # delay histogram for vnet_1 (Unspecified)
system.caches.delayVCHist.vnet_1::mean       1.657379                       # delay histogram for vnet_1 (Unspecified)
system.caches.delayVCHist.vnet_1::stdev      5.162288                       # delay histogram for vnet_1 (Unspecified)
system.caches.delayVCHist.vnet_1         |    73757312     96.38%     96.38% |     2256007      2.95%     99.33% |      460322      0.60%     99.93% |       52426      0.07%    100.00% |        2933      0.00%    100.00% |          85      0.00%    100.00% |           0      0.00%    100.00% |           0      0.00%    100.00% |           0      0.00%    100.00% |           0      0.00%    100.00% # delay histogram for vnet_1 (Unspecified)
system.caches.delayVCHist.vnet_1::total      76529085                       # delay histogram for vnet_1 (Unspecified)
system.caches.delayVCHist.vnet_2::bucket_size            1                       # delay histogram for vnet_2 (Unspecified)
system.caches.delayVCHist.vnet_2::max_bucket            9                       # delay histogram for vnet_2 (Unspecified)
system.caches.delayVCHist.vnet_2::samples      9410738                       # delay histogram for vnet_2 (Unspecified)
system.caches.delayVCHist.vnet_2::mean       0.001519                       # delay histogram for vnet_2 (Unspecified)
system.caches.delayVCHist.vnet_2::stdev      0.055134                       # delay histogram for vnet_2 (Unspecified)
system.caches.delayVCHist.vnet_2         |     9403593     99.92%     99.92% |           0      0.00%     99.92% |        7141      0.08%    100.00% |           0      0.00%    100.00% |           4      0.00%    100.00% |           0      0.00%    100.00% |           0      0.00%    100.00% |           0      0.00%    100.00% |           0      0.00%    100.00% |           0      0.00%    100.00% # delay histogram for vnet_2 (Unspecified)
system.caches.delayVCHist.vnet_2::total       9410738                       # delay histogram for vnet_2 (Unspecified)
system.caches.L1Cache_Controller.Load    |     7581324     12.64%     12.64% |     7468224     12.45%     25.09% |     7491196     12.49%     37.57% |     7474395     12.46%     50.03% |     7506306     12.51%     62.54% |     7472414     12.46%     75.00% |     7439776     12.40%     87.40% |     7559603     12.60%    100.00% (Unspecified)
system.caches.L1Cache_Controller.Load::total     59993238                       (Unspecified)
system.caches.L1Cache_Controller.Ifetch  |      666944     13.17%     13.17% |      638101     12.60%     25.77% |      605972     11.97%     37.74% |      619268     12.23%     49.97% |      620435     12.25%     62.22% |      647336     12.78%     75.00% |      601826     11.88%     86.88% |      664193     13.12%    100.00% (Unspecified)
system.caches.L1Cache_Controller.Ifetch::total      5064075                       (Unspecified)
system.caches.L1Cache_Controller.Store   |      157445     13.92%     13.92% |      140934     12.46%     26.37% |      134965     11.93%     38.30% |      137252     12.13%     50.43% |      137733     12.17%     62.61% |      142298     12.58%     75.18% |      134660     11.90%     87.08% |      146136     12.92%    100.00% (Unspecified)
system.caches.L1Cache_Controller.Store::total      1131423                       (Unspecified)
system.caches.L1Cache_Controller.Inv     |      905758     12.48%     12.48% |      907576     12.50%     24.98% |      908249     12.51%     37.49% |      910695     12.55%     50.04% |      905789     12.48%     62.52% |      906351     12.49%     75.01% |      906176     12.48%     87.49% |      907956     12.51%    100.00% (Unspecified)
system.caches.L1Cache_Controller.Inv::total      7258550                       (Unspecified)
system.caches.L1Cache_Controller.L1_Replacement |     3298432     12.49%     12.49% |     3292480     12.46%     24.95% |     3325199     12.59%     37.54% |     3312499     12.54%     50.08% |     3315464     12.55%     62.63% |     3277083     12.41%     75.04% |     3294773     12.47%     87.51% |     3298290     12.49%    100.00% (Unspecified)
system.caches.L1Cache_Controller.L1_Replacement::total     26414220                       (Unspecified)
system.caches.L1Cache_Controller.Fwd_GETX |        1651     13.10%     13.10% |        1576     12.51%     25.61% |        1510     11.98%     37.59% |        1543     12.25%     49.84% |        1561     12.39%     62.23% |        1601     12.71%     74.93% |        1508     11.97%     86.90% |        1651     13.10%    100.00% (Unspecified)
system.caches.L1Cache_Controller.Fwd_GETX::total        12601                       (Unspecified)
system.caches.L1Cache_Controller.Fwd_GETS |      268590     12.55%     12.55% |      268324     12.54%     25.09% |      268387     12.54%     37.64% |      264744     12.37%     50.01% |      268909     12.57%     62.58% |      268502     12.55%     75.13% |      267575     12.51%     87.64% |      264555     12.36%    100.00% (Unspecified)
system.caches.L1Cache_Controller.Fwd_GETS::total      2139586                       (Unspecified)
system.caches.L1Cache_Controller.Fwd_GET_INSTR |           1    100.00%    100.00% |           0      0.00%    100.00% |           0      0.00%    100.00% |           0      0.00%    100.00% |           0      0.00%    100.00% |           0      0.00%    100.00% |           0      0.00%    100.00% |           0      0.00%    100.00% (Unspecified)
system.caches.L1Cache_Controller.Fwd_GET_INSTR::total            1                       (Unspecified)
system.caches.L1Cache_Controller.Data    |          16    100.00%    100.00% |           0      0.00%    100.00% |           0      0.00%    100.00% |           0      0.00%    100.00% |           0      0.00%    100.00% |           0      0.00%    100.00% |           0      0.00%    100.00% |           0      0.00%    100.00% (Unspecified)
system.caches.L1Cache_Controller.Data::total           16                       (Unspecified)
system.caches.L1Cache_Controller.Data_Exclusive |     2039252     12.41%     12.41% |     2039120     12.41%     24.83% |     2077840     12.65%     37.48% |     2067861     12.59%     50.07% |     2068383     12.59%     62.66% |     2036473     12.40%     75.05% |     2058221     12.53%     87.58% |     2039594     12.42%    100.00% (Unspecified)
system.caches.L1Cache_Controller.Data_Exclusive::total     16426744                       (Unspecified)
system.caches.L1Cache_Controller.DataS_fromL1 |      265350     12.40%     12.40% |      267321     12.49%     24.90% |      268281     12.54%     37.43% |      269416     12.59%     50.03% |      266887     12.47%     62.50% |      264786     12.38%     74.88% |      268118     12.53%     87.41% |      269428     12.59%    100.00% (Unspecified)
system.caches.L1Cache_Controller.DataS_fromL1::total      2139587                       (Unspecified)
system.caches.L1Cache_Controller.Data_all_Acks |     1006935     12.67%     12.67% |      998842     12.56%     25.23% |      991696     12.47%     37.70% |      987889     12.43%     50.13% |      992867     12.49%     62.62% |      988662     12.44%     75.05% |      980958     12.34%     87.39% |     1002382     12.61%    100.00% (Unspecified)
system.caches.L1Cache_Controller.Data_all_Acks::total      7950231                       (Unspecified)
system.caches.L1Cache_Controller.Ack     |        1816     14.17%     14.17% |        1578     12.32%     26.49% |        1503     11.73%     38.22% |        1529     11.93%     50.16% |        1577     12.31%     62.46% |        1627     12.70%     75.16% |        1506     11.75%     86.92% |        1676     13.08%    100.00% (Unspecified)
system.caches.L1Cache_Controller.Ack::total        12812                       (Unspecified)
system.caches.L1Cache_Controller.Ack_all |        1726     13.57%     13.57% |        1578     12.40%     25.97% |        1503     11.81%     37.78% |        1529     12.02%     49.80% |        1577     12.40%     62.20% |        1627     12.79%     74.99% |        1506     11.84%     86.83% |        1676     13.17%    100.00% (Unspecified)
system.caches.L1Cache_Controller.Ack_all::total        12722                       (Unspecified)
system.caches.L1Cache_Controller.WB_Ack  |     1739453     12.42%     12.42% |     1734237     12.38%     24.81% |     1773771     12.67%     37.47% |     1767248     12.62%     50.09% |     1764157     12.60%     62.69% |     1730975     12.36%     75.05% |     1754238     12.53%     87.58% |     1739297     12.42%    100.00% (Unspecified)
system.caches.L1Cache_Controller.WB_Ack::total     14003376                       (Unspecified)
system.caches.L1Cache_Controller.NP.Load |     3289210     12.48%     12.48% |     3286425     12.47%     24.94% |     3319095     12.59%     37.53% |     3306499     12.54%     50.08% |     3309181     12.55%     62.63% |     3271095     12.41%     75.04% |     3288713     12.48%     87.51% |     3292157     12.49%    100.00% (Unspecified)
system.caches.L1Cache_Controller.NP.Load::total     26362375                       (Unspecified)
system.caches.L1Cache_Controller.NP.Ifetch |        6480     18.85%     18.85% |        3981     11.58%     30.42% |        3992     11.61%     42.04% |        3982     11.58%     53.62% |        3966     11.53%     65.15% |        3970     11.55%     76.70% |        4025     11.71%     88.40% |        3987     11.60%    100.00% (Unspecified)
system.caches.L1Cache_Controller.NP.Ifetch::total        34383                       (Unspecified)
system.caches.L1Cache_Controller.NP.Store |        2869     15.99%     15.99% |        2134     11.89%     27.88% |        2133     11.88%     39.76% |        2081     11.60%     51.36% |        2353     13.11%     64.47% |        2078     11.58%     76.05% |        2096     11.68%     87.72% |        2203     12.28%    100.00% (Unspecified)
system.caches.L1Cache_Controller.NP.Store::total        17947                       (Unspecified)
system.caches.L1Cache_Controller.NP.Inv  |      834906     12.46%     12.46% |      837698     12.50%     24.95% |      839989     12.53%     37.49% |      841861     12.56%     50.05% |      837496     12.49%     62.54% |      835779     12.47%     75.01% |      836804     12.48%     87.49% |      838211     12.51%    100.00% (Unspecified)
system.caches.L1Cache_Controller.NP.Inv::total      6702744                       (Unspecified)
system.caches.L1Cache_Controller.I.Load  |        4113     12.92%     12.92% |        4029     12.66%     25.58% |        3886     12.21%     37.80% |        3846     12.09%     49.88% |        3968     12.47%     62.35% |        4048     12.72%     75.07% |        3821     12.01%     87.08% |        4113     12.92%    100.00% (Unspecified)
system.caches.L1Cache_Controller.I.Load::total        31824                       (Unspecified)
system.caches.L1Cache_Controller.I.Ifetch |        7273     12.50%     12.50% |        7214     12.40%     24.90% |        7360     12.65%     37.55% |        7289     12.53%     50.07% |        7293     12.53%     62.61% |        7210     12.39%     75.00% |        7215     12.40%     87.40% |        7334     12.60%    100.00% (Unspecified)
system.caches.L1Cache_Controller.I.Ifetch::total        58188                       (Unspecified)
system.caches.L1Cache_Controller.I.Store |        1607     13.54%     13.54% |        1499     12.63%     26.17% |        1350     11.38%     37.55% |        1469     12.38%     49.93% |        1378     11.61%     61.54% |        1525     12.85%     74.39% |        1425     12.01%     86.40% |        1614     13.60%    100.00% (Unspecified)
system.caches.L1Cache_Controller.I.Store::total        11867                       (Unspecified)
system.caches.L1Cache_Controller.I.L1_Replacement |       59327     12.08%     12.08% |       62214     12.67%     24.75% |       60712     12.37%     37.12% |       61277     12.48%     49.60% |       60778     12.38%     61.98% |       62889     12.81%     74.79% |       61948     12.62%     87.40% |       61842     12.60%    100.00% (Unspecified)
system.caches.L1Cache_Controller.I.L1_Replacement::total       490987                       (Unspecified)
system.caches.L1Cache_Controller.S.Load  |     1923769     12.90%     12.90% |     1859247     12.47%     25.37% |     1836283     12.32%     37.69% |     1825349     12.24%     49.93% |     1854807     12.44%     62.37% |     1873793     12.57%     74.94% |     1822804     12.22%     87.16% |     1914443     12.84%    100.00% (Unspecified)
system.caches.L1Cache_Controller.S.Load::total     14910495                       (Unspecified)
system.caches.L1Cache_Controller.S.Ifetch |      653189     13.14%     13.14% |      626906     12.61%     25.75% |      594620     11.96%     37.71% |      607997     12.23%     49.94% |      609176     12.25%     62.19% |      636156     12.80%     74.99% |      590586     11.88%     86.87% |      652872     13.13%    100.00% (Unspecified)
system.caches.L1Cache_Controller.S.Ifetch::total      4971502                       (Unspecified)
system.caches.L1Cache_Controller.S.Store |        1712     13.45%     13.45% |        1581     12.43%     25.88% |        1505     11.83%     37.71% |        1533     12.05%     49.76% |        1579     12.41%     62.17% |        1628     12.79%     74.96% |        1510     11.87%     86.83% |        1676     13.17%    100.00% (Unspecified)
system.caches.L1Cache_Controller.S.Store::total        12724                       (Unspecified)
system.caches.L1Cache_Controller.S.Inv   |       33223     13.06%     13.06% |       31718     12.47%     25.54% |       31096     12.23%     37.76% |       31370     12.34%     50.10% |       31285     12.30%     62.40% |       31930     12.56%     74.96% |       31487     12.38%     87.34% |       32200     12.66%    100.00% (Unspecified)
system.caches.L1Cache_Controller.S.Inv::total       254309                       (Unspecified)
system.caches.L1Cache_Controller.S.L1_Replacement |     1499650     12.58%     12.58% |     1496027     12.55%     25.13% |     1490711     12.51%     37.64% |     1483974     12.45%     50.09% |     1490528     12.50%     62.59% |     1483216     12.44%     75.04% |     1478583     12.40%     87.44% |     1497147     12.56%    100.00% (Unspecified)
system.caches.L1Cache_Controller.S.L1_Replacement::total     11919836                       (Unspecified)
system.caches.L1Cache_Controller.E.Load  |     2224777     12.58%     12.58% |     2192914     12.40%     24.97% |     2213690     12.51%     37.49% |     2218312     12.54%     50.03% |     2217223     12.53%     62.56% |     2196441     12.42%     74.98% |     2204833     12.46%     87.45% |     2220495     12.55%    100.00% (Unspecified)
system.caches.L1Cache_Controller.E.Load::total     17688685                       (Unspecified)
system.caches.L1Cache_Controller.E.Store |        7733     13.44%     13.44% |        7209     12.53%     25.98% |        6909     12.01%     37.99% |        6995     12.16%     50.15% |        7035     12.23%     62.38% |        7277     12.65%     75.03% |        6888     11.97%     87.00% |        7475     13.00%    100.00% (Unspecified)
system.caches.L1Cache_Controller.E.Store::total        57521                       (Unspecified)
system.caches.L1Cache_Controller.E.Inv   |       37015     12.44%     12.44% |       37610     12.64%     25.09% |       36779     12.36%     37.45% |       36962     12.43%     49.88% |       36615     12.31%     62.19% |       38056     12.79%     74.98% |       37434     12.58%     87.57% |       36983     12.43%    100.00% (Unspecified)
system.caches.L1Cache_Controller.E.Inv::total       297454                       (Unspecified)
system.caches.L1Cache_Controller.E.L1_Replacement |     1725904     12.39%     12.39% |     1725518     12.39%     24.78% |     1765269     12.67%     37.45% |     1758762     12.63%     50.08% |     1755286     12.60%     62.68% |     1722264     12.36%     75.04% |     1745812     12.53%     87.58% |     1730208     12.42%    100.00% (Unspecified)
system.caches.L1Cache_Controller.E.L1_Replacement::total     13929023                       (Unspecified)
system.caches.L1Cache_Controller.E.Fwd_GETX |           0      0.00%      0.00% |           0      0.00%      0.00% |           0      0.00%      0.00% |           0      0.00%      0.00% |          26    100.00%    100.00% |           0      0.00%    100.00% |           0      0.00%    100.00% |           0      0.00%    100.00% (Unspecified)
system.caches.L1Cache_Controller.E.Fwd_GETX::total           26                       (Unspecified)
system.caches.L1Cache_Controller.E.Fwd_GETS |      266861     12.55%     12.55% |      266742     12.54%     25.09% |      266891     12.55%     37.64% |      263196     12.37%     50.01% |      267362     12.57%     62.58% |      266881     12.55%     75.13% |      266044     12.51%     87.64% |      262880     12.36%    100.00% (Unspecified)
system.caches.L1Cache_Controller.E.Fwd_GETS::total      2126857                       (Unspecified)
system.caches.L1Cache_Controller.E.Fwd_GET_INSTR |           1    100.00%    100.00% |           0      0.00%    100.00% |           0      0.00%    100.00% |           0      0.00%    100.00% |           0      0.00%    100.00% |           0      0.00%    100.00% |           0      0.00%    100.00% |           0      0.00%    100.00% (Unspecified)
system.caches.L1Cache_Controller.E.Fwd_GET_INSTR::total            1                       (Unspecified)
system.caches.L1Cache_Controller.M.Load  |      139448     13.95%     13.95% |      125601     12.56%     26.51% |      118234     11.83%     38.34% |      120379     12.04%     50.38% |      121123     12.11%     62.49% |      127031     12.71%     75.20% |      119599     11.96%     87.16% |      128388     12.84%    100.00% (Unspecified)
system.caches.L1Cache_Controller.M.Load::total       999803                       (Unspecified)
system.caches.L1Cache_Controller.M.Store |      143524     13.92%     13.92% |      128511     12.46%     26.38% |      123068     11.93%     38.31% |      125174     12.14%     50.45% |      125388     12.16%     62.60% |      129790     12.58%     75.19% |      122741     11.90%     87.09% |      133168     12.91%    100.00% (Unspecified)
system.caches.L1Cache_Controller.M.Store::total      1031364                       (Unspecified)
system.caches.L1Cache_Controller.M.Inv   |         604     15.24%     15.24% |         542     13.68%     28.92% |         378      9.54%     38.46% |         493     12.44%     50.90% |         384      9.69%     60.59% |         574     14.48%     75.07% |         438     11.05%     86.12% |         550     13.88%    100.00% (Unspecified)
system.caches.L1Cache_Controller.M.Inv::total         3963                       (Unspecified)
system.caches.L1Cache_Controller.M.L1_Replacement |       13549     18.22%     18.22% |        8719     11.73%     29.95% |        8502     11.43%     41.38% |        8486     11.41%     52.80% |        8871     11.93%     64.73% |        8711     11.72%     76.44% |        8426     11.33%     87.78% |        9089     12.22%    100.00% (Unspecified)
system.caches.L1Cache_Controller.M.L1_Replacement::total        74353                       (Unspecified)
system.caches.L1Cache_Controller.M.Fwd_GETX |        1651     13.13%     13.13% |        1576     12.53%     25.66% |        1510     12.01%     37.67% |        1543     12.27%     49.94% |        1535     12.21%     62.15% |        1601     12.73%     74.88% |        1508     11.99%     86.87% |        1651     13.13%    100.00% (Unspecified)
system.caches.L1Cache_Controller.M.Fwd_GETX::total        12575                       (Unspecified)
system.caches.L1Cache_Controller.M.Fwd_GETS |        1726     13.59%     13.59% |        1577     12.42%     26.01% |        1494     11.76%     37.77% |        1544     12.16%     49.93% |        1542     12.14%     62.07% |        1619     12.75%     74.81% |        1529     12.04%     86.85% |        1670     13.15%    100.00% (Unspecified)
system.caches.L1Cache_Controller.M.Fwd_GETS::total        12701                       (Unspecified)
system.caches.L1Cache_Controller.IS.Inv  |           2      6.90%      6.90% |           1      3.45%     10.34% |           3     10.34%     20.69% |           3     10.34%     31.03% |           4     13.79%     44.83% |           4     13.79%     58.62% |           4     13.79%     72.41% |           8     27.59%    100.00% (Unspecified)
system.caches.L1Cache_Controller.IS.Inv::total           29                       (Unspecified)
system.caches.L1Cache_Controller.IS.L1_Replacement |           2      9.52%      9.52% |           2      9.52%     19.05% |           5     23.81%     42.86% |           0      0.00%     42.86% |           1      4.76%     47.62% |           3     14.29%     61.90% |           4     19.05%     80.95% |           4     19.05%    100.00% (Unspecified)
system.caches.L1Cache_Controller.IS.L1_Replacement::total           21                       (Unspecified)
system.caches.L1Cache_Controller.IS.Data_Exclusive |     2039250     12.41%     12.41% |     2039119     12.41%     24.83% |     2077839     12.65%     37.48% |     2067860     12.59%     50.07% |     2068381     12.59%     62.66% |     2036471     12.40%     75.05% |     2058219     12.53%     87.58% |     2039588     12.42%    100.00% (Unspecified)
system.caches.L1Cache_Controller.IS.Data_Exclusive::total     16426727                       (Unspecified)
system.caches.L1Cache_Controller.IS.DataS_fromL1 |      265350     12.40%     12.40% |      267321     12.49%     24.90% |      268281     12.54%     37.43% |      269416     12.59%     50.03% |      266887     12.47%     62.50% |      264786     12.38%     74.88% |      268118     12.53%     87.41% |      269428     12.59%    100.00% (Unspecified)
system.caches.L1Cache_Controller.IS.DataS_fromL1::total      2139587                       (Unspecified)
system.caches.L1Cache_Controller.IS.Data_all_Acks |     1002473     12.66%     12.66% |      995206     12.57%     25.22% |      988209     12.48%     37.70% |      984333     12.43%     50.13% |      989132     12.49%     62.61% |      985056     12.44%     75.05% |      977431     12.34%     87.39% |      998563     12.61%    100.00% (Unspecified)
system.caches.L1Cache_Controller.IS.Data_all_Acks::total      7920403                       (Unspecified)
system.caches.L1Cache_Controller.IM.Data |          16    100.00%    100.00% |           0      0.00%    100.00% |           0      0.00%    100.00% |           0      0.00%    100.00% |           0      0.00%    100.00% |           0      0.00%    100.00% |           0      0.00%    100.00% |           0      0.00%    100.00% (Unspecified)
system.caches.L1Cache_Controller.IM.Data::total           16                       (Unspecified)
system.caches.L1Cache_Controller.IM.Data_all_Acks |        4462     14.97%     14.97% |        3636     12.19%     27.16% |        3485     11.69%     38.85% |        3554     11.92%     50.77% |        3733     12.52%     63.29% |        3604     12.09%     75.38% |        3525     11.82%     87.20% |        3817     12.80%    100.00% (Unspecified)
system.caches.L1Cache_Controller.IM.Data_all_Acks::total        29816                       (Unspecified)
system.caches.L1Cache_Controller.SM.Inv  |           2     11.11%     11.11% |           3     16.67%     27.78% |           2     11.11%     38.89% |           4     22.22%     61.11% |           2     11.11%     72.22% |           1      5.56%     77.78% |           4     22.22%    100.00% |           0      0.00%    100.00% (Unspecified)
system.caches.L1Cache_Controller.SM.Inv::total           18                       (Unspecified)
system.caches.L1Cache_Controller.SM.Ack  |        1816     14.17%     14.17% |        1578     12.32%     26.49% |        1503     11.73%     38.22% |        1529     11.93%     50.16% |        1577     12.31%     62.46% |        1627     12.70%     75.16% |        1506     11.75%     86.92% |        1676     13.08%    100.00% (Unspecified)
system.caches.L1Cache_Controller.SM.Ack::total        12812                       (Unspecified)
system.caches.L1Cache_Controller.SM.Ack_all |        1726     13.57%     13.57% |        1578     12.40%     25.97% |        1503     11.81%     37.78% |        1529     12.02%     49.80% |        1577     12.40%     62.20% |        1627     12.79%     74.99% |        1506     11.84%     86.83% |        1676     13.17%    100.00% (Unspecified)
system.caches.L1Cache_Controller.SM.Ack_all::total        12722                       (Unspecified)
system.caches.L1Cache_Controller.IS_I.Data_Exclusive |           2     11.76%     11.76% |           1      5.88%     17.65% |           1      5.88%     23.53% |           1      5.88%     29.41% |           2     11.76%     41.18% |           2     11.76%     52.94% |           2     11.76%     64.71% |           6     35.29%    100.00% (Unspecified)
system.caches.L1Cache_Controller.IS_I.Data_Exclusive::total           17                       (Unspecified)
system.caches.L1Cache_Controller.IS_I.Data_all_Acks |           0      0.00%      0.00% |           0      0.00%      0.00% |           2     16.67%     16.67% |           2     16.67%     33.33% |           2     16.67%     50.00% |           2     16.67%     66.67% |           2     16.67%     83.33% |           2     16.67%    100.00% (Unspecified)
system.caches.L1Cache_Controller.IS_I.Data_all_Acks::total           12                       (Unspecified)
system.caches.L1Cache_Controller.M_I.Load |           7     12.50%     12.50% |           8     14.29%     26.79% |           8     14.29%     41.07% |          10     17.86%     58.93% |           4      7.14%     66.07% |           6     10.71%     76.79% |           6     10.71%     87.50% |           7     12.50%    100.00% (Unspecified)
system.caches.L1Cache_Controller.M_I.Load::total           56                       (Unspecified)
system.caches.L1Cache_Controller.M_I.Ifetch |           2    100.00%    100.00% |           0      0.00%    100.00% |           0      0.00%    100.00% |           0      0.00%    100.00% |           0      0.00%    100.00% |           0      0.00%    100.00% |           0      0.00%    100.00% |           0      0.00%    100.00% (Unspecified)
system.caches.L1Cache_Controller.M_I.Ifetch::total            2                       (Unspecified)
system.caches.L1Cache_Controller.M_I.Inv |           6     18.18%     18.18% |           4     12.12%     30.30% |           2      6.06%     36.36% |           2      6.06%     42.42% |           3      9.09%     51.52% |           7     21.21%     72.73% |           5     15.15%     87.88% |           4     12.12%    100.00% (Unspecified)
system.caches.L1Cache_Controller.M_I.Inv::total           33                       (Unspecified)
system.caches.L1Cache_Controller.M_I.Fwd_GETS |           3     10.71%     10.71% |           5     17.86%     28.57% |           2      7.14%     35.71% |           4     14.29%     50.00% |           5     17.86%     67.86% |           2      7.14%     75.00% |           2      7.14%     82.14% |           5     17.86%    100.00% (Unspecified)
system.caches.L1Cache_Controller.M_I.Fwd_GETS::total           28                       (Unspecified)
system.caches.L1Cache_Controller.M_I.WB_Ack |     1739444     12.42%     12.42% |     1734228     12.38%     24.81% |     1773767     12.67%     37.47% |     1767242     12.62%     50.09% |     1764149     12.60%     62.69% |     1730966     12.36%     75.05% |     1754231     12.53%     87.58% |     1739288     12.42%    100.00% (Unspecified)
system.caches.L1Cache_Controller.M_I.WB_Ack::total     14003315                       (Unspecified)
system.caches.L1Cache_Controller.SINK_WB_ACK.WB_Ack |           9     14.75%     14.75% |           9     14.75%     29.51% |           4      6.56%     36.07% |           6      9.84%     45.90% |           8     13.11%     59.02% |           9     14.75%     73.77% |           7     11.48%     85.25% |           9     14.75%    100.00% (Unspecified)
system.caches.L1Cache_Controller.SINK_WB_ACK.WB_Ack::total           61                       (Unspecified)
system.caches.Directory_Controller.Fetch |       28750      0.22%      0.22% |    13270405     99.78%    100.00% (Unspecified)
system.caches.Directory_Controller.Fetch::total     13299155                       (Unspecified)
system.caches.Directory_Controller.Data  |        1103      0.93%      0.93% |      117289     99.07%    100.00% (Unspecified)
system.caches.Directory_Controller.Data::total       118392                       (Unspecified)
system.caches.Directory_Controller.Memory_Data |       28750      0.22%      0.22% |    13270384     99.78%    100.00% (Unspecified)
system.caches.Directory_Controller.Memory_Data::total     13299134                       (Unspecified)
system.caches.Directory_Controller.Memory_Ack |        1103      0.93%      0.93% |      117289     99.07%    100.00% (Unspecified)
system.caches.Directory_Controller.Memory_Ack::total       118392                       (Unspecified)
system.caches.Directory_Controller.CleanReplacement |       27767      0.21%      0.21% |    13152996     99.79%    100.00% (Unspecified)
system.caches.Directory_Controller.CleanReplacement::total     13180763                       (Unspecified)
system.caches.Directory_Controller.I.Fetch |       28750      0.22%      0.22% |    13270405     99.78%    100.00% (Unspecified)
system.caches.Directory_Controller.I.Fetch::total     13299155                       (Unspecified)
system.caches.Directory_Controller.M.Data |        1103      0.93%      0.93% |      117289     99.07%    100.00% (Unspecified)
system.caches.Directory_Controller.M.Data::total       118392                       (Unspecified)
system.caches.Directory_Controller.M.CleanReplacement |       27767      0.21%      0.21% |    13152996     99.79%    100.00% (Unspecified)
system.caches.Directory_Controller.M.CleanReplacement::total     13180763                       (Unspecified)
system.caches.Directory_Controller.IM.Memory_Data |       28750      0.22%      0.22% |    13270384     99.78%    100.00% (Unspecified)
system.caches.Directory_Controller.IM.Memory_Data::total     13299134                       (Unspecified)
system.caches.Directory_Controller.MI.Memory_Ack |        1103      0.93%      0.93% |      117289     99.07%    100.00% (Unspecified)
system.caches.Directory_Controller.MI.Memory_Ack::total       118392                       (Unspecified)
system.caches.L2Cache_Controller.L1_GET_INSTR |       10420     11.25%     11.25% |       11938     12.89%     24.14% |       10988     11.87%     36.01% |        8472      9.15%     45.16% |       11891     12.84%     58.00% |       13875     14.98%     72.98% |       12806     13.83%     86.81% |       12218     13.19%    100.00% (Unspecified)
system.caches.L2Cache_Controller.L1_GET_INSTR::total        92608                       (Unspecified)
system.caches.L2Cache_Controller.L1_GETS |     3371846     12.77%     12.77% |     3307870     12.53%     25.31% |     3321628     12.58%     37.89% |     3254066     12.33%     50.22% |     3277519     12.42%     62.64% |     3315765     12.56%     75.20% |     3259188     12.35%     87.55% |     3286789     12.45%    100.00% (Unspecified)
system.caches.L2Cache_Controller.L1_GETS::total     26394671                       (Unspecified)
system.caches.L2Cache_Controller.L1_GETX |        4675     15.66%     15.66% |        3900     13.06%     28.72% |         166      0.56%     29.28% |       13455     45.07%     74.35% |        1374      4.60%     78.95% |        2812      9.42%     88.37% |        1596      5.35%     93.72% |        1876      6.28%    100.00% (Unspecified)
system.caches.L2Cache_Controller.L1_GETX::total        29854                       (Unspecified)
system.caches.L2Cache_Controller.L1_UPGRADE |           0      0.00%      0.00% |        6376     50.08%     50.08% |           0      0.00%     50.08% |           0      0.00%     50.08% |           0      0.00%     50.08% |        6349     49.87%     99.95% |           7      0.05%    100.00% |           0      0.00%    100.00% (Unspecified)
system.caches.L2Cache_Controller.L1_UPGRADE::total        12732                       (Unspecified)
system.caches.L2Cache_Controller.L1_PUTX |     1750503     12.50%     12.50% |     1761210     12.58%     25.08% |     1750876     12.50%     37.58% |     1749123     12.49%     50.07% |     1746676     12.47%     62.54% |     1758534     12.56%     75.10% |     1738961     12.42%     87.52% |     1747488     12.48%    100.00% (Unspecified)
system.caches.L2Cache_Controller.L1_PUTX::total     14003371                       (Unspecified)
system.caches.L2Cache_Controller.L1_PUTX_old |          14     21.21%     21.21% |           4      6.06%     27.27% |           2      3.03%     30.30% |          14     21.21%     51.52% |          10     15.15%     66.67% |           6      9.09%     75.76% |           8     12.12%     87.88% |           8     12.12%    100.00% (Unspecified)
system.caches.L2Cache_Controller.L1_PUTX_old::total           66                       (Unspecified)
system.caches.L2Cache_Controller.L2_Replacement |       15638     13.53%     13.53% |       14838     12.84%     26.37% |       12664     10.96%     37.32% |       13830     11.96%     49.29% |       13787     11.93%     61.21% |       15585     13.48%     74.70% |       14322     12.39%     87.09% |       14928     12.91%    100.00% (Unspecified)
system.caches.L2Cache_Controller.L2_Replacement::total       115592                       (Unspecified)
system.caches.L2Cache_Controller.L2_Replacement_clean |     1641977     12.45%     12.45% |     1658157     12.58%     25.03% |     1646787     12.49%     37.52% |     1655653     12.56%     50.08% |     1644907     12.48%     62.56% |     1649206     12.51%     75.07% |     1640617     12.44%     87.51% |     1646259     12.49%    100.00% (Unspecified)
system.caches.L2Cache_Controller.L2_Replacement_clean::total     13183563                       (Unspecified)
system.caches.L2Cache_Controller.Mem_Data |     1657614     12.46%     12.46% |     1672993     12.58%     25.04% |     1659448     12.48%     37.52% |     1669481     12.55%     50.07% |     1658689     12.47%     62.55% |     1664789     12.52%     75.07% |     1654934     12.44%     87.51% |     1661185     12.49%    100.00% (Unspecified)
system.caches.L2Cache_Controller.Mem_Data::total     13299133                       (Unspecified)
system.caches.L2Cache_Controller.Mem_Ack |     1657615     12.46%     12.46% |     1672995     12.58%     25.04% |     1659451     12.48%     37.52% |     1669483     12.55%     50.07% |     1658694     12.47%     62.55% |     1664791     12.52%     75.07% |     1654939     12.44%     87.51% |     1661187     12.49%    100.00% (Unspecified)
system.caches.L2Cache_Controller.Mem_Ack::total     13299155                       (Unspecified)
system.caches.L2Cache_Controller.WB_Data |        1121      6.73%      6.73% |        7414     44.49%     51.22% |         243      1.46%     52.68% |         365      2.19%     54.87% |         238      1.43%     56.30% |        6618     39.71%     96.01% |         346      2.08%     98.09% |         319      1.91%    100.00% (Unspecified)
system.caches.L2Cache_Controller.WB_Data::total        16664                       (Unspecified)
system.caches.L2Cache_Controller.WB_Data_clean |      268923     12.64%     12.64% |      267110     12.56%     25.20% |      265700     12.49%     37.69% |      270849     12.73%     50.43% |      262995     12.37%     62.79% |      262640     12.35%     75.14% |      264536     12.44%     87.58% |      264166     12.42%    100.00% (Unspecified)
system.caches.L2Cache_Controller.WB_Data_clean::total      2126919                       (Unspecified)
system.caches.L2Cache_Controller.Ack     |      604711     12.60%     12.60% |      606736     12.64%     25.24% |      602659     12.55%     37.79% |      606515     12.63%     50.42% |      592102     12.33%     62.76% |      593774     12.37%     75.13% |      597862     12.45%     87.58% |      596197     12.42%    100.00% (Unspecified)
system.caches.L2Cache_Controller.Ack::total      4800556                       (Unspecified)
system.caches.L2Cache_Controller.Ack_all |      307319     12.59%     12.59% |      307470     12.60%     25.18% |      304533     12.47%     37.66% |      311137     12.75%     50.40% |      302412     12.39%     62.79% |      301382     12.35%     75.14% |      304200     12.46%     87.60% |      302717     12.40%    100.00% (Unspecified)
system.caches.L2Cache_Controller.Ack_all::total      2441170                       (Unspecified)
system.caches.L2Cache_Controller.Unblock |      268933     12.57%     12.57% |      273428     12.78%     25.35% |      265706     12.42%     37.77% |      270849     12.66%     50.43% |      263000     12.29%     62.72% |      268941     12.57%     75.29% |      264563     12.37%     87.65% |      264167     12.35%    100.00% (Unspecified)
system.caches.L2Cache_Controller.Unblock::total      2139587                       (Unspecified)
system.caches.L2Cache_Controller.Exclusive_Unblock |     2057743     12.49%     12.49% |     2075388     12.60%     25.10% |     2055226     12.48%     37.58% |     2073377     12.59%     50.16% |     2048619     12.44%     62.60% |     2066084     12.55%     75.15% |     2043115     12.41%     87.55% |     2049730     12.45%    100.00% (Unspecified)
system.caches.L2Cache_Controller.Exclusive_Unblock::total     16469282                       (Unspecified)
system.caches.L2Cache_Controller.NP.L1_GET_INSTR |        2986     12.41%     12.41% |        3280     13.64%     26.05% |        2744     11.41%     37.46% |        2264      9.41%     46.87% |        3171     13.18%     60.05% |        3262     13.56%     73.61% |        3087     12.83%     86.44% |        3261     13.56%    100.00% (Unspecified)
system.caches.L2Cache_Controller.NP.L1_GET_INSTR::total        24055                       (Unspecified)
system.caches.L2Cache_Controller.NP.L1_GETS |     1651521     12.45%     12.45% |     1667144     12.57%     25.03% |     1656541     12.49%     37.52% |     1666171     12.56%     50.08% |     1654158     12.47%     62.56% |     1658846     12.51%     75.07% |     1650326     12.45%     87.51% |     1656073     12.49%    100.00% (Unspecified)
system.caches.L2Cache_Controller.NP.L1_GETS::total     13260780                       (Unspecified)
system.caches.L2Cache_Controller.NP.L1_GETX |        3108     21.70%     21.70% |        2571     17.95%     39.66% |         166      1.16%     40.82% |        1048      7.32%     48.14% |        1365      9.53%     57.67% |        2683     18.74%     76.40% |        1526     10.66%     87.06% |        1853     12.94%    100.00% (Unspecified)
system.caches.L2Cache_Controller.NP.L1_GETX::total        14320                       (Unspecified)
system.caches.L2Cache_Controller.NP.L1_PUTX_old |           7     21.21%     21.21% |           2      6.06%     27.27% |           1      3.03%     30.30% |           7     21.21%     51.52% |           5     15.15%     66.67% |           3      9.09%     75.76% |           4     12.12%     87.88% |           4     12.12%    100.00% (Unspecified)
system.caches.L2Cache_Controller.NP.L1_PUTX_old::total           33                       (Unspecified)
system.caches.L2Cache_Controller.SS.L1_GET_INSTR |        6366     10.56%     10.56% |        7557     12.54%     23.10% |        7191     11.93%     35.03% |        5360      8.89%     43.92% |        7680     12.74%     56.66% |        9590     15.91%     72.57% |        8575     14.23%     86.79% |        7961     13.21%    100.00% (Unspecified)
system.caches.L2Cache_Controller.SS.L1_GET_INSTR::total        60280                       (Unspecified)
system.caches.L2Cache_Controller.SS.L1_GETS |     1046507     13.39%     13.39% |      967419     12.38%     25.78% |      998787     12.78%     38.56% |      921767     11.80%     50.36% |      965613     12.36%     62.72% |      988536     12.65%     75.37% |      951754     12.18%     87.55% |      972872     12.45%    100.00% (Unspecified)
system.caches.L2Cache_Controller.SS.L1_GETS::total      7813255                       (Unspecified)
system.caches.L2Cache_Controller.SS.L1_GETX |           7     43.75%     43.75% |           0      0.00%     43.75% |           0      0.00%     43.75% |           0      0.00%     43.75% |           0      0.00%     43.75% |           0      0.00%     43.75% |           9     56.25%    100.00% |           0      0.00%    100.00% (Unspecified)
system.caches.L2Cache_Controller.SS.L1_GETX::total           16                       (Unspecified)
system.caches.L2Cache_Controller.SS.L1_UPGRADE |           0      0.00%      0.00% |        6364     50.09%     50.09% |           0      0.00%     50.09% |           0      0.00%     50.09% |           0      0.00%     50.09% |        6337     49.87%     99.96% |           5      0.04%    100.00% |           0      0.00%    100.00% (Unspecified)
system.caches.L2Cache_Controller.SS.L1_UPGRADE::total        12706                       (Unspecified)
system.caches.L2Cache_Controller.SS.L1_PUTX |           4     14.29%     14.29% |           4     14.29%     28.57% |           5     17.86%     46.43% |           2      7.14%     53.57% |           2      7.14%     60.71% |           3     10.71%     71.43% |           4     14.29%     85.71% |           4     14.29%    100.00% (Unspecified)
system.caches.L2Cache_Controller.SS.L1_PUTX::total           28                       (Unspecified)
system.caches.L2Cache_Controller.SS.L2_Replacement |          77     13.68%     13.68% |          69     12.26%     25.93% |          59     10.48%     36.41% |          60     10.66%     47.07% |          73     12.97%     60.04% |          62     11.01%     71.05% |          92     16.34%     87.39% |          71     12.61%    100.00% (Unspecified)
system.caches.L2Cache_Controller.SS.L2_Replacement::total          563                       (Unspecified)
system.caches.L2Cache_Controller.SS.L2_Replacement_clean |      271475     12.67%     12.67% |      269361     12.57%     25.24% |      267601     12.49%     37.72% |      271999     12.69%     50.41% |      265129     12.37%     62.78% |      264724     12.35%     75.14% |      266408     12.43%     87.57% |      266456     12.43%    100.00% (Unspecified)
system.caches.L2Cache_Controller.SS.L2_Replacement_clean::total      2143153                       (Unspecified)
system.caches.L2Cache_Controller.M.L1_GET_INSTR |           2     14.29%     14.29% |           4     28.57%     42.86% |           1      7.14%     50.00% |           3     21.43%     71.43% |           2     14.29%     85.71% |           1      7.14%     92.86% |           0      0.00%     92.86% |           1      7.14%    100.00% (Unspecified)
system.caches.L2Cache_Controller.M.L1_GET_INSTR::total           14                       (Unspecified)
system.caches.L2Cache_Controller.M.L1_GETS |      403043     12.70%     12.70% |      398875     12.57%     25.27% |      399510     12.59%     37.86% |      394498     12.43%     50.30% |      393892     12.41%     62.71% |      398740     12.57%     75.28% |      391817     12.35%     87.62% |      392685     12.38%    100.00% (Unspecified)
system.caches.L2Cache_Controller.M.L1_GETS::total      3173060                       (Unspecified)
system.caches.L2Cache_Controller.M.L1_GETX |        1546     53.40%     53.40% |        1225     42.31%     95.72% |           0      0.00%     95.72% |          17      0.59%     96.30% |           9      0.31%     96.61% |          26      0.90%     97.51% |          49      1.69%     99.21% |          23      0.79%    100.00% (Unspecified)
system.caches.L2Cache_Controller.M.L1_GETX::total         2895                       (Unspecified)
system.caches.L2Cache_Controller.M.L2_Replacement |       15091     13.26%     13.26% |       14220     12.50%     25.76% |       12595     11.07%     36.83% |       13753     12.09%     48.92% |       13704     12.04%     60.96% |       15361     13.50%     74.46% |       14217     12.49%     86.95% |       14845     13.05%    100.00% (Unspecified)
system.caches.L2Cache_Controller.M.L2_Replacement::total       113786                       (Unspecified)
system.caches.L2Cache_Controller.M.L2_Replacement_clean |     1334094     12.42%     12.42% |     1350209     12.57%     24.99% |     1342086     12.50%     37.49% |     1344228     12.52%     50.00% |     1342345     12.50%     62.50% |     1347731     12.55%     75.05% |     1336203     12.44%     87.49% |     1343307     12.51%    100.00% (Unspecified)
system.caches.L2Cache_Controller.M.L2_Replacement_clean::total     10740203                       (Unspecified)
system.caches.L2Cache_Controller.MT.L1_GET_INSTR |           0      0.00%      0.00% |           0      0.00%      0.00% |           0      0.00%      0.00% |           0      0.00%      0.00% |           0      0.00%      0.00% |           1    100.00%    100.00% |           0      0.00%    100.00% |           0      0.00%    100.00% (Unspecified)
system.caches.L2Cache_Controller.MT.L1_GET_INSTR::total            1                       (Unspecified)
system.caches.L2Cache_Controller.MT.L1_GETS |      268933     12.57%     12.57% |      273428     12.78%     25.35% |      265706     12.42%     37.77% |      270849     12.66%     50.43% |      263000     12.29%     62.72% |      268940     12.57%     75.29% |      264563     12.37%     87.65% |      264167     12.35%    100.00% (Unspecified)
system.caches.L2Cache_Controller.MT.L1_GETS::total      2139586                       (Unspecified)
system.caches.L2Cache_Controller.MT.L1_GETX |          14      0.11%      0.11% |         103      0.82%      0.93% |           0      0.00%      0.93% |       12373     98.19%     99.12% |           0      0.00%     99.12% |          99      0.79%     99.90% |          12      0.10%    100.00% |           0      0.00%    100.00% (Unspecified)
system.caches.L2Cache_Controller.MT.L1_GETX::total        12601                       (Unspecified)
system.caches.L2Cache_Controller.MT.L1_PUTX |     1750495     12.50%     12.50% |     1761202     12.58%     25.08% |     1750866     12.50%     37.58% |     1749119     12.49%     50.07% |     1746672     12.47%     62.54% |     1758528     12.56%     75.10% |     1738953     12.42%     87.52% |     1747480     12.48%    100.00% (Unspecified)
system.caches.L2Cache_Controller.MT.L1_PUTX::total     14003315                       (Unspecified)
system.caches.L2Cache_Controller.MT.L2_Replacement |         470     37.81%     37.81% |         549     44.17%     81.98% |          10      0.80%     82.78% |          17      1.37%     84.15% |          10      0.80%     84.96% |         162     13.03%     97.99% |          13      1.05%     99.03% |          12      0.97%    100.00% (Unspecified)
system.caches.L2Cache_Controller.MT.L2_Replacement::total         1243                       (Unspecified)
system.caches.L2Cache_Controller.MT.L2_Replacement_clean |       36408     12.13%     12.13% |       38587     12.85%     24.98% |       37100     12.36%     37.34% |       39426     13.13%     50.47% |       37433     12.47%     62.94% |       36751     12.24%     75.18% |       38006     12.66%     87.84% |       36496     12.16%    100.00% (Unspecified)
system.caches.L2Cache_Controller.MT.L2_Replacement_clean::total       300207                       (Unspecified)
system.caches.L2Cache_Controller.M_I.L1_GET_INSTR |           0      0.00%      0.00% |           0      0.00%      0.00% |           6     18.75%     18.75% |          11     34.38%     53.12% |           1      3.12%     56.25% |           2      6.25%     62.50% |          11     34.38%     96.88% |           1      3.12%    100.00% (Unspecified)
system.caches.L2Cache_Controller.M_I.L1_GET_INSTR::total           32                       (Unspecified)
system.caches.L2Cache_Controller.M_I.L1_GETS |          72     45.57%     45.57% |          18     11.39%     56.96% |          12      7.59%     64.56% |           8      5.06%     69.62% |           9      5.70%     75.32% |          14      8.86%     84.18% |          10      6.33%     90.51% |          15      9.49%    100.00% (Unspecified)
system.caches.L2Cache_Controller.M_I.L1_GETS::total          158                       (Unspecified)
system.caches.L2Cache_Controller.M_I.Mem_Ack |     1657615     12.46%     12.46% |     1672995     12.58%     25.04% |     1659451     12.48%     37.52% |     1669483     12.55%     50.07% |     1658694     12.47%     62.55% |     1664791     12.52%     75.07% |     1654939     12.44%     87.51% |     1661187     12.49%    100.00% (Unspecified)
system.caches.L2Cache_Controller.M_I.Mem_Ack::total     13299155                       (Unspecified)
system.caches.L2Cache_Controller.MT_I.WB_Data |         457     39.29%     39.29% |         534     45.92%     85.21% |           5      0.43%     85.64% |           5      0.43%     86.07% |           3      0.26%     86.33% |         152     13.07%     99.40% |           4      0.34%     99.74% |           3      0.26%    100.00% (Unspecified)
system.caches.L2Cache_Controller.MT_I.WB_Data::total         1163                       (Unspecified)
system.caches.L2Cache_Controller.MT_I.Ack_all |          13     16.25%     16.25% |          15     18.75%     35.00% |           5      6.25%     41.25% |          12     15.00%     56.25% |           7      8.75%     65.00% |          10     12.50%     77.50% |           9     11.25%     88.75% |           9     11.25%    100.00% (Unspecified)
system.caches.L2Cache_Controller.MT_I.Ack_all::total           80                       (Unspecified)
system.caches.L2Cache_Controller.MCT_I.L1_PUTX_old |           7     21.21%     21.21% |           2      6.06%     27.27% |           1      3.03%     30.30% |           7     21.21%     51.52% |           5     15.15%     66.67% |           3      9.09%     75.76% |           4     12.12%     87.88% |           4     12.12%    100.00% (Unspecified)
system.caches.L2Cache_Controller.MCT_I.L1_PUTX_old::total           33                       (Unspecified)
system.caches.L2Cache_Controller.MCT_I.WB_Data |         647     23.11%     23.11% |         560     20.00%     43.11% |         231      8.25%     51.36% |         353     12.61%     63.96% |         225      8.04%     72.00% |         162      5.79%     77.79% |         311     11.11%     88.89% |         311     11.11%    100.00% (Unspecified)
system.caches.L2Cache_Controller.MCT_I.WB_Data::total         2800                       (Unspecified)
system.caches.L2Cache_Controller.MCT_I.WB_Data_clean |           7     21.21%     21.21% |           2      6.06%     27.27% |           1      3.03%     30.30% |           7     21.21%     51.52% |           5     15.15%     66.67% |           3      9.09%     75.76% |           4     12.12%     87.88% |           4     12.12%    100.00% (Unspecified)
system.caches.L2Cache_Controller.MCT_I.WB_Data_clean::total           33                       (Unspecified)
system.caches.L2Cache_Controller.MCT_I.Ack_all |       35754     12.02%     12.02% |       38025     12.79%     24.81% |       36868     12.40%     37.21% |       39066     13.14%     50.35% |       37203     12.51%     62.86% |       36586     12.30%     75.16% |       37691     12.67%     87.83% |       36181     12.17%    100.00% (Unspecified)
system.caches.L2Cache_Controller.MCT_I.Ack_all::total       297374                       (Unspecified)
system.caches.L2Cache_Controller.I_I.L1_GETS |           6     17.14%     17.14% |           5     14.29%     31.43% |           4     11.43%     42.86% |           5     14.29%     57.14% |           4     11.43%     68.57% |           7     20.00%     88.57% |           1      2.86%     91.43% |           3      8.57%    100.00% (Unspecified)
system.caches.L2Cache_Controller.I_I.L1_GETS::total           35                       (Unspecified)
system.caches.L2Cache_Controller.I_I.Ack |      604581     12.60%     12.60% |      606631     12.64%     25.24% |      602556     12.55%     37.79% |      606429     12.63%     50.42% |      591995     12.33%     62.76% |      593679     12.37%     75.13% |      597720     12.45%     87.58% |      596092     12.42%    100.00% (Unspecified)
system.caches.L2Cache_Controller.I_I.Ack::total      4799683                       (Unspecified)
system.caches.L2Cache_Controller.I_I.Ack_all |      271475     12.67%     12.67% |      269361     12.57%     25.24% |      267601     12.49%     37.72% |      271999     12.69%     50.41% |      265129     12.37%     62.78% |      264724     12.35%     75.14% |      266408     12.43%     87.57% |      266456     12.43%    100.00% (Unspecified)
system.caches.L2Cache_Controller.I_I.Ack_all::total      2143153                       (Unspecified)
system.caches.L2Cache_Controller.S_I.Ack |         130     14.89%     14.89% |         105     12.03%     26.92% |         103     11.80%     38.72% |          86      9.85%     48.57% |         107     12.26%     60.82% |          95     10.88%     71.71% |         142     16.27%     87.97% |         105     12.03%    100.00% (Unspecified)
system.caches.L2Cache_Controller.S_I.Ack::total          873                       (Unspecified)
system.caches.L2Cache_Controller.S_I.Ack_all |          77     13.68%     13.68% |          69     12.26%     25.93% |          59     10.48%     36.41% |          60     10.66%     47.07% |          73     12.97%     60.04% |          62     11.01%     71.05% |          92     16.34%     87.39% |          71     12.61%    100.00% (Unspecified)
system.caches.L2Cache_Controller.S_I.Ack_all::total          563                       (Unspecified)
system.caches.L2Cache_Controller.ISS.L1_GETS |        1495     21.14%     21.14% |         892     12.61%     33.75% |         988     13.97%     47.72% |         728     10.29%     58.01% |         800     11.31%     69.32% |         645      9.12%     78.44% |         624      8.82%     87.26% |         901     12.74%    100.00% (Unspecified)
system.caches.L2Cache_Controller.ISS.L1_GETS::total         7073                       (Unspecified)
system.caches.L2Cache_Controller.ISS.Mem_Data |     1650025     12.45%     12.45% |     1666250     12.57%     25.02% |     1655550     12.49%     37.51% |     1665441     12.57%     50.08% |     1653353     12.47%     62.55% |     1658199     12.51%     75.06% |     1649697     12.45%     87.51% |     1655170     12.49%    100.00% (Unspecified)
system.caches.L2Cache_Controller.ISS.Mem_Data::total     13253685                       (Unspecified)
system.caches.L2Cache_Controller.IS.L1_GET_INSTR |        1066     12.97%     12.97% |        1097     13.34%     26.31% |        1046     12.72%     39.03% |         834     10.14%     49.18% |        1037     12.61%     61.79% |        1014     12.33%     74.13% |        1133     13.78%     87.91% |         994     12.09%    100.00% (Unspecified)
system.caches.L2Cache_Controller.IS.L1_GET_INSTR::total         8221                       (Unspecified)
system.caches.L2Cache_Controller.IS.L1_GETS |         219     49.32%     49.32% |          68     15.32%     64.64% |          45     10.14%     74.77% |          21      4.73%     79.50% |          18      4.05%     83.56% |          15      3.38%     86.94% |           4      0.90%     87.84% |          54     12.16%    100.00% (Unspecified)
system.caches.L2Cache_Controller.IS.L1_GETS::total          444                       (Unspecified)
system.caches.L2Cache_Controller.IS.Mem_Data |        4481     14.40%     14.40% |        4172     13.40%     27.80% |        3732     11.99%     39.79% |        2992      9.61%     49.40% |        3971     12.76%     62.16% |        3907     12.55%     74.71% |        3711     11.92%     86.63% |        4162     13.37%    100.00% (Unspecified)
system.caches.L2Cache_Controller.IS.Mem_Data::total        31128                       (Unspecified)
system.caches.L2Cache_Controller.IM.Mem_Data |        3108     21.70%     21.70% |        2571     17.95%     39.66% |         166      1.16%     40.82% |        1048      7.32%     48.14% |        1365      9.53%     57.67% |        2683     18.74%     76.40% |        1526     10.66%     87.06% |        1853     12.94%    100.00% (Unspecified)
system.caches.L2Cache_Controller.IM.Mem_Data::total        14320                       (Unspecified)
system.caches.L2Cache_Controller.SS_MB.L1_GETS |           0      0.00%      0.00% |           1      3.57%      3.57% |           0      0.00%      3.57% |           0      0.00%      3.57% |           0      0.00%      3.57% |           2      7.14%     10.71% |          25     89.29%    100.00% |           0      0.00%    100.00% (Unspecified)
system.caches.L2Cache_Controller.SS_MB.L1_GETS::total           28                       (Unspecified)
system.caches.L2Cache_Controller.SS_MB.L1_GETX |           0      0.00%      0.00% |           0      0.00%      0.00% |           0      0.00%      0.00% |           0      0.00%      0.00% |           0      0.00%      0.00% |           2    100.00%    100.00% |           0      0.00%    100.00% |           0      0.00%    100.00% (Unspecified)
system.caches.L2Cache_Controller.SS_MB.L1_GETX::total            2                       (Unspecified)
system.caches.L2Cache_Controller.SS_MB.L1_UPGRADE |           0      0.00%      0.00% |          10     55.56%     55.56% |           0      0.00%     55.56% |           0      0.00%     55.56% |           0      0.00%     55.56% |           8     44.44%    100.00% |           0      0.00%    100.00% |           0      0.00%    100.00% (Unspecified)
system.caches.L2Cache_Controller.SS_MB.L1_UPGRADE::total           18                       (Unspecified)
system.caches.L2Cache_Controller.SS_MB.Exclusive_Unblock |           7      0.06%      0.06% |        6364     50.02%     50.08% |           0      0.00%     50.08% |           0      0.00%     50.08% |           0      0.00%     50.08% |        6337     49.81%     99.89% |          14      0.11%    100.00% |           0      0.00%    100.00% (Unspecified)
system.caches.L2Cache_Controller.SS_MB.Exclusive_Unblock::total        12722                       (Unspecified)
system.caches.L2Cache_Controller.MT_MB.L1_GETS |          36     21.69%     21.69% |          15      9.04%     30.72% |          29     17.47%     48.19% |          18     10.84%     59.04% |          18     10.84%     69.88% |          14      8.43%     78.31% |          20     12.05%     90.36% |          16      9.64%    100.00% (Unspecified)
system.caches.L2Cache_Controller.MT_MB.L1_GETS::total          166                       (Unspecified)
system.caches.L2Cache_Controller.MT_MB.L1_GETX |           0      0.00%      0.00% |           1      5.00%      5.00% |           0      0.00%      5.00% |          17     85.00%     90.00% |           0      0.00%     90.00% |           2     10.00%    100.00% |           0      0.00%    100.00% |           0      0.00%    100.00% (Unspecified)
system.caches.L2Cache_Controller.MT_MB.L1_GETX::total           20                       (Unspecified)
system.caches.L2Cache_Controller.MT_MB.Exclusive_Unblock |     2057736     12.50%     12.50% |     2069024     12.57%     25.08% |     2055226     12.49%     37.57% |     2073377     12.60%     50.16% |     2048619     12.45%     62.61% |     2059747     12.52%     75.13% |     2043101     12.42%     87.54% |     2049730     12.46%    100.00% (Unspecified)
system.caches.L2Cache_Controller.MT_MB.Exclusive_Unblock::total     16456560                       (Unspecified)
system.caches.L2Cache_Controller.MT_IIB.L1_GET_INSTR |           0      0.00%      0.00% |           0      0.00%      0.00% |           0      0.00%      0.00% |           0      0.00%      0.00% |           0      0.00%      0.00% |           5    100.00%    100.00% |           0      0.00%    100.00% |           0      0.00%    100.00% (Unspecified)
system.caches.L2Cache_Controller.MT_IIB.L1_GET_INSTR::total            5                       (Unspecified)
system.caches.L2Cache_Controller.MT_IIB.L1_GETS |          11     16.92%     16.92% |           0      0.00%     16.92% |           3      4.62%     21.54% |           0      0.00%     21.54% |           4      6.15%     27.69% |           5      7.69%     35.38% |          39     60.00%     95.38% |           3      4.62%    100.00% (Unspecified)
system.caches.L2Cache_Controller.MT_IIB.L1_GETS::total           65                       (Unspecified)
system.caches.L2Cache_Controller.MT_IIB.L1_PUTX |           4     14.29%     14.29% |           4     14.29%     28.57% |           5     17.86%     46.43% |           2      7.14%     53.57% |           2      7.14%     60.71% |           3     10.71%     71.43% |           4     14.29%     85.71% |           4     14.29%    100.00% (Unspecified)
system.caches.L2Cache_Controller.MT_IIB.L1_PUTX::total           28                       (Unspecified)
system.caches.L2Cache_Controller.MT_IIB.WB_Data |          17      0.13%      0.13% |        6320     49.76%     49.90% |           7      0.06%     49.95% |           7      0.06%     50.01% |          10      0.08%     50.09% |        6303     49.63%     99.72% |          31      0.24%     99.96% |           5      0.04%    100.00% (Unspecified)
system.caches.L2Cache_Controller.MT_IIB.WB_Data::total        12700                       (Unspecified)
system.caches.L2Cache_Controller.MT_IIB.WB_Data_clean |      268861     12.64%     12.64% |      267060     12.56%     25.20% |      265652     12.49%     37.69% |      270791     12.73%     50.43% |      262940     12.36%     62.79% |      262590     12.35%     75.14% |      264488     12.44%     87.58% |      264124     12.42%    100.00% (Unspecified)
system.caches.L2Cache_Controller.MT_IIB.WB_Data_clean::total      2126506                       (Unspecified)
system.caches.L2Cache_Controller.MT_IIB.Unblock |          55     14.44%     14.44% |          48     12.60%     27.03% |          47     12.34%     39.37% |          51     13.39%     52.76% |          50     13.12%     65.88% |          48     12.60%     78.48% |          44     11.55%     90.03% |          38      9.97%    100.00% (Unspecified)
system.caches.L2Cache_Controller.MT_IIB.Unblock::total          381                       (Unspecified)
system.caches.L2Cache_Controller.MT_IB.WB_Data |           0      0.00%      0.00% |           0      0.00%      0.00% |           0      0.00%      0.00% |           0      0.00%      0.00% |           0      0.00%      0.00% |           1    100.00%    100.00% |           0      0.00%    100.00% |           0      0.00%    100.00% (Unspecified)
system.caches.L2Cache_Controller.MT_IB.WB_Data::total            1                       (Unspecified)
system.caches.L2Cache_Controller.MT_IB.WB_Data_clean |          55     14.47%     14.47% |          48     12.63%     27.11% |          47     12.37%     39.47% |          51     13.42%     52.89% |          50     13.16%     66.05% |          47     12.37%     78.42% |          44     11.58%     90.00% |          38     10.00%    100.00% (Unspecified)
system.caches.L2Cache_Controller.MT_IB.WB_Data_clean::total          380                       (Unspecified)
system.caches.L2Cache_Controller.MT_SB.L1_GETS |           3     14.29%     14.29% |           5     23.81%     38.10% |           3     14.29%     52.38% |           1      4.76%     57.14% |           3     14.29%     71.43% |           1      4.76%     76.19% |           5     23.81%    100.00% |           0      0.00%    100.00% (Unspecified)
system.caches.L2Cache_Controller.MT_SB.L1_GETS::total           21                       (Unspecified)
system.caches.L2Cache_Controller.MT_SB.L1_UPGRADE |           0      0.00%      0.00% |           2     25.00%     25.00% |           0      0.00%     25.00% |           0      0.00%     25.00% |           0      0.00%     25.00% |           4     50.00%     75.00% |           2     25.00%    100.00% |           0      0.00%    100.00% (Unspecified)
system.caches.L2Cache_Controller.MT_SB.L1_UPGRADE::total            8                       (Unspecified)
system.caches.L2Cache_Controller.MT_SB.Unblock |      268878     12.57%     12.57% |      273380     12.78%     25.35% |      265659     12.42%     37.77% |      270798     12.66%     50.43% |      262950     12.29%     62.72% |      268893     12.57%     75.29% |      264519     12.37%     87.65% |      264129     12.35%    100.00% (Unspecified)
system.caches.L2Cache_Controller.MT_SB.Unblock::total      2139206                       (Unspecified)
system.caches.RequestType.LD.latency_hist_seqr::bucket_size         1024                       (Unspecified)
system.caches.RequestType.LD.latency_hist_seqr::max_bucket        10239                       (Unspecified)
system.caches.RequestType.LD.latency_hist_seqr::samples     59993158                       (Unspecified)
system.caches.RequestType.LD.latency_hist_seqr::mean   129.351538                       (Unspecified)
system.caches.RequestType.LD.latency_hist_seqr::gmean     7.391419                       (Unspecified)
system.caches.RequestType.LD.latency_hist_seqr::stdev   268.444931                       (Unspecified)
system.caches.RequestType.LD.latency_hist_seqr |    59609826     99.36%     99.36% |      186953      0.31%     99.67% |      193724      0.32%    100.00% |        2578      0.00%    100.00% |          72      0.00%    100.00% |           5      0.00%    100.00% |           0      0.00%    100.00% |           0      0.00%    100.00% |           0      0.00%    100.00% |           0      0.00%    100.00% (Unspecified)
system.caches.RequestType.LD.latency_hist_seqr::total     59993158                       (Unspecified)
system.caches.RequestType.LD.hit_latency_hist_seqr::bucket_size            1                       (Unspecified)
system.caches.RequestType.LD.hit_latency_hist_seqr::max_bucket            9                       (Unspecified)
system.caches.RequestType.LD.hit_latency_hist_seqr::samples     33598983                       (Unspecified)
system.caches.RequestType.LD.hit_latency_hist_seqr::mean     1.017965                       (Unspecified)
system.caches.RequestType.LD.hit_latency_hist_seqr::gmean     1.011443                       (Unspecified)
system.caches.RequestType.LD.hit_latency_hist_seqr::stdev     0.159752                       (Unspecified)
system.caches.RequestType.LD.hit_latency_hist_seqr |           0      0.00%      0.00% |    33116104     98.56%     98.56% |      373628      1.11%     99.67% |       97951      0.29%     99.97% |       11132      0.03%    100.00% |         168      0.00%    100.00% |           0      0.00%    100.00% |           0      0.00%    100.00% |           0      0.00%    100.00% |           0      0.00%    100.00% (Unspecified)
system.caches.RequestType.LD.hit_latency_hist_seqr::total     33598983                       (Unspecified)
system.caches.RequestType.LD.miss_latency_hist_seqr::bucket_size         1024                       (Unspecified)
system.caches.RequestType.LD.miss_latency_hist_seqr::max_bucket        10239                       (Unspecified)
system.caches.RequestType.LD.miss_latency_hist_seqr::samples     26394175                       (Unspecified)
system.caches.RequestType.LD.miss_latency_hist_seqr::mean   292.716277                       (Unspecified)
system.caches.RequestType.LD.miss_latency_hist_seqr::gmean    92.961192                       (Unspecified)
system.caches.RequestType.LD.miss_latency_hist_seqr::stdev   340.797645                       (Unspecified)
system.caches.RequestType.LD.miss_latency_hist_seqr |    26010843     98.55%     98.55% |      186953      0.71%     99.26% |      193724      0.73%     99.99% |        2578      0.01%    100.00% |          72      0.00%    100.00% |           5      0.00%    100.00% |           0      0.00%    100.00% |           0      0.00%    100.00% |           0      0.00%    100.00% |           0      0.00%    100.00% (Unspecified)
system.caches.RequestType.LD.miss_latency_hist_seqr::total     26394175                       (Unspecified)
system.caches.RequestType.ST.latency_hist_seqr::bucket_size          512                       (Unspecified)
system.caches.RequestType.ST.latency_hist_seqr::max_bucket         5119                       (Unspecified)
system.caches.RequestType.ST.latency_hist_seqr::samples      1083689                       (Unspecified)
system.caches.RequestType.ST.latency_hist_seqr::mean     4.908616                       (Unspecified)
system.caches.RequestType.ST.latency_hist_seqr::gmean     1.115525                       (Unspecified)
system.caches.RequestType.ST.latency_hist_seqr::stdev    50.706528                       (Unspecified)
system.caches.RequestType.ST.latency_hist_seqr |     1080722     99.73%     99.73% |        2710      0.25%     99.98% |         137      0.01%     99.99% |          13      0.00%     99.99% |          78      0.01%    100.00% |          28      0.00%    100.00% |           1      0.00%    100.00% |           0      0.00%    100.00% |           0      0.00%    100.00% |           0      0.00%    100.00% (Unspecified)
system.caches.RequestType.ST.latency_hist_seqr::total      1083689                       (Unspecified)
system.caches.RequestType.ST.hit_latency_hist_seqr::bucket_size           64                       (Unspecified)
system.caches.RequestType.ST.hit_latency_hist_seqr::max_bucket          639                       (Unspecified)
system.caches.RequestType.ST.hit_latency_hist_seqr::samples      1059662                       (Unspecified)
system.caches.RequestType.ST.hit_latency_hist_seqr::mean     1.033775                       (Unspecified)
system.caches.RequestType.ST.hit_latency_hist_seqr::gmean     1.023322                       (Unspecified)
system.caches.RequestType.ST.hit_latency_hist_seqr::stdev     0.510068                       (Unspecified)
system.caches.RequestType.ST.hit_latency_hist_seqr |     1059661    100.00%    100.00% |           0      0.00%    100.00% |           0      0.00%    100.00% |           0      0.00%    100.00% |           0      0.00%    100.00% |           0      0.00%    100.00% |           0      0.00%    100.00% |           1      0.00%    100.00% |           0      0.00%    100.00% |           0      0.00%    100.00% (Unspecified)
system.caches.RequestType.ST.hit_latency_hist_seqr::total      1059662                       (Unspecified)
system.caches.RequestType.ST.miss_latency_hist_seqr::bucket_size          512                       (Unspecified)
system.caches.RequestType.ST.miss_latency_hist_seqr::max_bucket         5119                       (Unspecified)
system.caches.RequestType.ST.miss_latency_hist_seqr::samples        24027                       (Unspecified)
system.caches.RequestType.ST.miss_latency_hist_seqr::mean   175.800599                       (Unspecified)
system.caches.RequestType.ST.miss_latency_hist_seqr::gmean    50.104214                       (Unspecified)
system.caches.RequestType.ST.miss_latency_hist_seqr::stdev   293.414960                       (Unspecified)
[...]
system.o3Cpu7.iew.squashCycles                 126691                       # Number of cycles IEW is squashing (Cycle)
system.o3Cpu7.iew.blockCycles                24223079                       # Number of cycles IEW is blocking (Cycle)
system.o3Cpu7.iew.unblockCycles              37274259                       # Number of cycles IEW is unblocking (Cycle)
system.o3Cpu7.iew.dispatchedInsts            36574364                       # Number of instructions dispatched to IQ (Count)
system.o3Cpu7.iew.dispSquashedInsts             13638                       # Number of squashed instructions skipped by dispatch (Count)
system.o3Cpu7.iew.dispLoadInsts               7079150                       # Number of dispatched load instructions (Count)
system.o3Cpu7.iew.dispStoreInsts               172160                       # Number of dispatched store instructions (Count)
system.o3Cpu7.iew.dispNonSpecInsts               3820                       # Number of dispatched non-speculative instructions (Count)
system.o3Cpu7.iew.iqFullEvents                  66153                       # Number of times the IQ has become full, causing a stall (Count)
system.o3Cpu7.iew.lsqFullEvents              36939945                       # Number of times the LSQ has become full, causing a stall (Count)
system.o3Cpu7.iew.memOrderViolationEvents          533                       # Number of memory order violations (Count)
system.o3Cpu7.iew.predictedTakenIncorrect        91488                       # Number of branches that were predicted taken incorrectly (Count)
system.o3Cpu7.iew.predictedNotTakenIncorrect        37523                       # Number of branches that were predicted not taken incorrectly (Count)
system.o3Cpu7.iew.branchMispredicts            129011                       # Number of branch mispredicts detected at execute (Count)
system.o3Cpu7.iew.instsToCommit              35814637                       # Cumulative count of insts sent to commit (Count)
system.o3Cpu7.iew.writebackCount             35791580                       # Cumulative count of insts written-back (Count)
system.o3Cpu7.iew.producerInst               28609279                       # Number of instructions producing a value (Count)
system.o3Cpu7.iew.consumerInst               36899716                       # Number of instructions consuming a value (Count)
system.o3Cpu7.iew.wbRate                     0.129178                       # Insts written-back per cycle ((Count/Cycle))
system.o3Cpu7.iew.wbFanout                   0.775325                       # Average fanout of values written-back ((Count/Count))
system.o3Cpu7.interrupts.clk_domain.clock         3200                       # Clock period in ticks (Tick)
system.o3Cpu7.lsq0.forwLoads                     8227                       # Number of loads that had data forwarded from stores (Count)
system.o3Cpu7.lsq0.squashedLoads               329597                       # Number of loads squashed (Count)
system.o3Cpu7.lsq0.ignoredResponses                 5                       # Number of memory responses ignored because the instruction is squashed (Count)
system.o3Cpu7.lsq0.memOrderViolation              533                       # Number of memory ordering violations (Count)
system.o3Cpu7.lsq0.squashedStores               29899                       # Number of stores squashed (Count)
system.o3Cpu7.lsq0.rescheduledLoads                54                       # Number of loads that were rescheduled (Count)
system.o3Cpu7.lsq0.blockedByCache                   4                       # Number of times an access to memory failed due to the cache being blocked (Count)
system.o3Cpu7.lsq0.loadToUse::samples         6749537                       # Distribution of cycle latency between the first time a load is issued and its completion (Unspecified)
system.o3Cpu7.lsq0.loadToUse::mean         191.955078                       # Distribution of cycle latency between the first time a load is issued and its completion (Unspecified)
system.o3Cpu7.lsq0.loadToUse::stdev        299.115387                       # Distribution of cycle latency between the first time a load is issued and its completion (Unspecified)
system.o3Cpu7.lsq0.loadToUse::0-9             2652270     39.30%     39.30% # Distribution of cycle latency between the first time a load is issued and its completion (Unspecified)
system.o3Cpu7.lsq0.loadToUse::10-19            886278     13.13%     52.43% # Distribution of cycle latency between the first time a load is issued and its completion (Unspecified)
system.o3Cpu7.lsq0.loadToUse::20-29            524517      7.77%     60.20% # Distribution of cycle latency between the first time a load is issued and its completion (Unspecified)
system.o3Cpu7.lsq0.loadToUse::30-39            127433      1.89%     62.09% # Distribution of cycle latency between the first time a load is issued and its completion (Unspecified)
system.o3Cpu7.lsq0.loadToUse::40-49             52830      0.78%     62.87% # Distribution of cycle latency between the first time a load is issued and its completion (Unspecified)
system.o3Cpu7.lsq0.loadToUse::50-59             33389      0.49%     63.36% # Distribution of cycle latency between the first time a load is issued and its completion (Unspecified)
system.o3Cpu7.lsq0.loadToUse::60-69             26978      0.40%     63.76% # Distribution of cycle latency between the first time a load is issued and its completion (Unspecified)
system.o3Cpu7.lsq0.loadToUse::70-79             19458      0.29%     64.05% # Distribution of cycle latency between the first time a load is issued and its completion (Unspecified)
system.o3Cpu7.lsq0.loadToUse::80-89             16313      0.24%     64.29% # Distribution of cycle latency between the first time a load is issued and its completion (Unspecified)
system.o3Cpu7.lsq0.loadToUse::90-99             14593      0.22%     64.51% # Distribution of cycle latency between the first time a load is issued and its completion (Unspecified)
system.o3Cpu7.lsq0.loadToUse::100-109           13694      0.20%     64.71% # Distribution of cycle latency between the first time a load is issued and its completion (Unspecified)
system.o3Cpu7.lsq0.loadToUse::110-119           14781      0.22%     64.93% # Distribution of cycle latency between the first time a load is issued and its completion (Unspecified)
system.o3Cpu7.lsq0.loadToUse::120-129           10908      0.16%     65.09% # Distribution of cycle latency between the first time a load is issued and its completion (Unspecified)
system.o3Cpu7.lsq0.loadToUse::130-139           12888      0.19%     65.28% # Distribution of cycle latency between the first time a load is issued and its completion (Unspecified)
system.o3Cpu7.lsq0.loadToUse::140-149           11994      0.18%     65.46% # Distribution of cycle latency between the first time a load is issued and its completion (Unspecified)
system.o3Cpu7.lsq0.loadToUse::150-159           12036      0.18%     65.64% # Distribution of cycle latency between the first time a load is issued and its completion (Unspecified)
system.o3Cpu7.lsq0.loadToUse::160-169           12364      0.18%     65.82% # Distribution of cycle latency between the first time a load is issued and its completion (Unspecified)
system.o3Cpu7.lsq0.loadToUse::170-179           10412      0.15%     65.98% # Distribution of cycle latency between the first time a load is issued and its completion (Unspecified)
system.o3Cpu7.lsq0.loadToUse::180-189           11239      0.17%     66.14% # Distribution of cycle latency between the first time a load is issued and its completion (Unspecified)
system.o3Cpu7.lsq0.loadToUse::190-199           10709      0.16%     66.30% # Distribution of cycle latency between the first time a load is issued and its completion (Unspecified)
system.o3Cpu7.lsq0.loadToUse::200-209           11443      0.17%     66.47% # Distribution of cycle latency between the first time a load is issued and its completion (Unspecified)
system.o3Cpu7.lsq0.loadToUse::210-219           10943      0.16%     66.63% # Distribution of cycle latency between the first time a load is issued and its completion (Unspecified)
system.o3Cpu7.lsq0.loadToUse::220-229           10644      0.16%     66.79% # Distribution of cycle latency between the first time a load is issued and its completion (Unspecified)
system.o3Cpu7.lsq0.loadToUse::230-239           10402      0.15%     66.95% # Distribution of cycle latency between the first time a load is issued and its completion (Unspecified)
system.o3Cpu7.lsq0.loadToUse::240-249            9817      0.15%     67.09% # Distribution of cycle latency between the first time a load is issued and its completion (Unspecified)
system.o3Cpu7.lsq0.loadToUse::250-259           10771      0.16%     67.25% # Distribution of cycle latency between the first time a load is issued and its completion (Unspecified)
system.o3Cpu7.lsq0.loadToUse::260-269            8889      0.13%     67.38% # Distribution of cycle latency between the first time a load is issued and its completion (Unspecified)
system.o3Cpu7.lsq0.loadToUse::270-279            9360      0.14%     67.52% # Distribution of cycle latency between the first time a load is issued and its completion (Unspecified)
system.o3Cpu7.lsq0.loadToUse::280-289            8941      0.13%     67.65% # Distribution of cycle latency between the first time a load is issued and its completion (Unspecified)
system.o3Cpu7.lsq0.loadToUse::290-299            9044      0.13%     67.79% # Distribution of cycle latency between the first time a load is issued and its completion (Unspecified)
system.o3Cpu7.lsq0.loadToUse::overflows       2174199     32.21%    100.00% # Distribution of cycle latency between the first time a load is issued and its completion (Unspecified)
system.o3Cpu7.lsq0.loadToUse::min_value             2                       # Distribution of cycle latency between the first time a load is issued and its completion (Unspecified)
system.o3Cpu7.lsq0.loadToUse::max_value          5994                       # Distribution of cycle latency between the first time a load is issued and its completion (Unspecified)
system.o3Cpu7.lsq0.loadToUse::total           6749537                       # Distribution of cycle latency between the first time a load is issued and its completion (Unspecified)
system.o3Cpu7.mmu.dtb.rdAccesses              7524769                       # TLB accesses on read requests (Count)
system.o3Cpu7.mmu.dtb.wrAccesses               162379                       # TLB accesses on write requests (Count)
system.o3Cpu7.mmu.dtb.rdMisses                 385657                       # TLB misses on read requests (Count)
system.o3Cpu7.mmu.dtb.wrMisses                  10800                       # TLB misses on write requests (Count)
system.o3Cpu7.mmu.dtb.walker.power_state.pwrStateResidencyTicks::UNDEFINED  56424890400                       # Cumulative time (in ticks) in various power states (Tick)
system.o3Cpu7.mmu.itb.rdAccesses                    0                       # TLB accesses on read requests (Count)
system.o3Cpu7.mmu.itb.wrAccesses               664592                       # TLB accesses on write requests (Count)
system.o3Cpu7.mmu.itb.rdMisses                      0                       # TLB misses on read requests (Count)
system.o3Cpu7.mmu.itb.wrMisses                    262                       # TLB misses on write requests (Count)
system.o3Cpu7.mmu.itb.walker.power_state.pwrStateResidencyTicks::UNDEFINED  56424890400                       # Cumulative time (in ticks) in various power states (Tick)
system.o3Cpu7.power_state.pwrStateResidencyTicks::OFF  56424890400                       # Cumulative time (in ticks) in various power states (Tick)
system.o3Cpu7.rename.squashCycles              126691                       # Number of cycles rename is squashing (Cycle)
system.o3Cpu7.rename.idleCycles               2987847                       # Number of cycles rename is idle (Cycle)
system.o3Cpu7.rename.blockCycles             86136340                       # Number of cycles rename is blocking (Cycle)
system.o3Cpu7.rename.serializeStallCycles       332010                       # count of cycles rename stalled for serializing inst (Cycle)
system.o3Cpu7.rename.runCycles                8178196                       # Number of cycles rename is running (Cycle)
system.o3Cpu7.rename.unblockCycles          179181670                       # Number of cycles rename is unblocking (Cycle)
system.o3Cpu7.rename.renamedInsts            37131605                       # Number of instructions processed by rename (Count)
system.o3Cpu7.rename.ROBFullEvents            1570751                       # Number of times rename has blocked due to ROB full (Count)
system.o3Cpu7.rename.IQFullEvents             5385038                       # Number of times rename has blocked due to IQ full (Count)
system.o3Cpu7.rename.LQFullEvents           176708222                       # Number of times rename has blocked due to LQ full (Count)
system.o3Cpu7.rename.SQFullEvents              119098                       # Number of times rename has blocked due to SQ full (Count)
system.o3Cpu7.rename.renamedOperands         68507569                       # Number of destination operands rename has renamed (Count)
system.o3Cpu7.rename.lookups                120183680                       # Number of register rename lookups that rename has made (Count)
system.o3Cpu7.rename.intLookups              36065456                       # Number of integer rename lookups (Count)
system.o3Cpu7.rename.fpLookups               12986457                       # Number of floating rename lookups (Count)
system.o3Cpu7.rename.committedMaps           64382454                       # Number of HB maps that are committed (Count)
system.o3Cpu7.rename.undoneMaps               4124963                       # Number of HB maps that are undone due to squashing (Count)
system.o3Cpu7.rename.serializing                 2107                       # count of serializing insts renamed (Count)
system.o3Cpu7.rename.tempSerializing             2123                       # count of temporary serializing insts renamed (Count)
system.o3Cpu7.rename.skidInsts                8125979                       # count of insts added to the skid buffer (Count)
system.o3Cpu7.rob.reads                     305217700                       # The number of ROB reads (Count)
system.o3Cpu7.rob.writes                     73664545                       # The number of ROB writes (Count)
system.o3Cpu7.thread_0.numInsts              17755523                       # Number of Instructions committed (Count)
system.o3Cpu7.thread_0.numOps                34737553                       # Number of Ops committed (Count)
system.o3Cpu7.thread_0.numMemRefs                   0                       # Number of Memory References (Count)
system.pc.bad_addr.power_state.pwrStateResidencyTicks::UNDEFINED  56424890400                       # Cumulative time (in ticks) in various power states (Tick)
system.pc.com_1.power_state.pwrStateResidencyTicks::UNDEFINED  56424890400                       # Cumulative time (in ticks) in various power states (Tick)
system.pc.default_bus.power_state.pwrStateResidencyTicks::UNDEFINED  56424890400                       # Cumulative time (in ticks) in various power states (Tick)
system.pc.empty_isa.power_state.pwrStateResidencyTicks::UNDEFINED  56424890400                       # Cumulative time (in ticks) in various power states (Tick)
system.pc.fake_com_2.power_state.pwrStateResidencyTicks::UNDEFINED  56424890400                       # Cumulative time (in ticks) in various power states (Tick)
system.pc.fake_com_3.power_state.pwrStateResidencyTicks::UNDEFINED  56424890400                       # Cumulative time (in ticks) in various power states (Tick)
system.pc.fake_com_4.power_state.pwrStateResidencyTicks::UNDEFINED  56424890400                       # Cumulative time (in ticks) in various power states (Tick)
system.pc.fake_floppy.power_state.pwrStateResidencyTicks::UNDEFINED  56424890400                       # Cumulative time (in ticks) in various power states (Tick)
system.pc.pci_host.power_state.pwrStateResidencyTicks::UNDEFINED  56424890400                       # Cumulative time (in ticks) in various power states (Tick)
system.pc.south_bridge.cmos.power_state.pwrStateResidencyTicks::UNDEFINED  56424890400                       # Cumulative time (in ticks) in various power states (Tick)
system.pc.south_bridge.dma1.power_state.pwrStateResidencyTicks::UNDEFINED  56424890400                       # Cumulative time (in ticks) in various power states (Tick)
system.pc.south_bridge.ide.disks0.IdeDisk.dmaReadFullPages            0                       # Number of full page size DMA reads (not PRD). (Count)
system.pc.south_bridge.ide.disks0.IdeDisk.dmaReadBytes            0                       # Number of bytes transfered via DMA reads (not PRD). (Byte)
system.pc.south_bridge.ide.disks0.IdeDisk.dmaReadTxs            0                       # Number of DMA read transactions (not PRD). (Count)
system.pc.south_bridge.ide.disks0.IdeDisk.dmaWriteFullPages            0                       # Number of full page size DMA writes. (Count)
system.pc.south_bridge.ide.disks0.IdeDisk.dmaWriteBytes            0                       # Number of bytes transfered via DMA writes. (Byte)
system.pc.south_bridge.ide.disks0.IdeDisk.dmaWriteTxs            0                       # Number of DMA write transactions. (Count)
system.pc.south_bridge.ide.disks1.IdeDisk.dmaReadFullPages            0                       # Number of full page size DMA reads (not PRD). (Count)
system.pc.south_bridge.ide.disks1.IdeDisk.dmaReadBytes            0                       # Number of bytes transfered via DMA reads (not PRD). (Byte)
system.pc.south_bridge.ide.disks1.IdeDisk.dmaReadTxs            0                       # Number of DMA read transactions (not PRD). (Count)
system.pc.south_bridge.ide.disks1.IdeDisk.dmaWriteFullPages            0                       # Number of full page size DMA writes. (Count)
system.pc.south_bridge.ide.disks1.IdeDisk.dmaWriteBytes            0                       # Number of bytes transfered via DMA writes. (Byte)
system.pc.south_bridge.ide.disks1.IdeDisk.dmaWriteTxs            0                       # Number of DMA write transactions. (Count)
system.pc.south_bridge.ide.power_state.pwrStateResidencyTicks::UNDEFINED  56424890400                       # Cumulative time (in ticks) in various power states (Tick)
system.pc.south_bridge.io_apic.power_state.pwrStateResidencyTicks::UNDEFINED  56424890400                       # Cumulative time (in ticks) in various power states (Tick)
system.pc.south_bridge.keyboard.power_state.pwrStateResidencyTicks::UNDEFINED  56424890400                       # Cumulative time (in ticks) in various power states (Tick)
system.pc.south_bridge.pic1.power_state.pwrStateResidencyTicks::UNDEFINED  56424890400                       # Cumulative time (in ticks) in various power states (Tick)
system.pc.south_bridge.pic2.power_state.pwrStateResidencyTicks::UNDEFINED  56424890400                       # Cumulative time (in ticks) in various power states (Tick)
system.pc.south_bridge.pit.power_state.pwrStateResidencyTicks::UNDEFINED  56424890400                       # Cumulative time (in ticks) in various power states (Tick)
system.pc.south_bridge.speaker.power_state.pwrStateResidencyTicks::UNDEFINED  56424890400                       # Cumulative time (in ticks) in various power states (Tick)
system.workload.inst.arm                            0                       # number of arm instructions executed (Count)
system.workload.inst.quiesce                        0                       # number of quiesce instructions executed (Count)

---------- End Simulation Statistics   ----------
