
---------- Begin Simulation Statistics ----------
simSeconds                                   0.151420                       # Number of seconds simulated (Second)
simTicks                                 151419711040                       # Number of ticks simulated (Tick)
finalTick                                224968591502800                       # Number of ticks from beginning of simulation (restored from checkpoints and never reset) (Tick)
simFreq                                  1000000000000                       # The number of ticks per simulated second ((Tick/Second))
hostSeconds                                   7175.14                       # Real time elapsed on the host (Second)
hostTickRate                                 21103368                       # The number of ticks simulated per host second (ticks/s) ((Tick/Second))
hostMemory                                   71440268                       # Number of bytes of host memory used (Byte)
simInsts                                    412122335                       # Number of instructions simulated (Count)
simOps                                      736789759                       # Number of ops (including micro ops) simulated (Count)
hostInstRate                                    57437                       # Simulator instruction rate (inst/s) ((Count/Second))
hostOpRate                                     102686                       # Simulator op (including micro ops) rate (op/s) ((Count/Second))
system.caches.delayHistogram::bucket_size           32                       # delay histogram for all message (Unspecified)
system.caches.delayHistogram::max_bucket          319                       # delay histogram for all message (Unspecified)
system.caches.delayHistogram::samples        22447096                       # delay histogram for all message (Unspecified)
system.caches.delayHistogram::mean           1.156992                       # delay histogram for all message (Unspecified)
system.caches.delayHistogram::stdev          2.805687                       # delay histogram for all message (Unspecified)
system.caches.delayHistogram             |    22447045    100.00%    100.00% |          44      0.00%    100.00% |           6      0.00%    100.00% |           0      0.00%    100.00% |           0      0.00%    100.00% |           0      0.00%    100.00% |           1      0.00%    100.00% |           0      0.00%    100.00% |           0      0.00%    100.00% |           0      0.00%    100.00% # delay histogram for all message (Unspecified)
system.caches.delayHistogram::total          22447096                       # delay histogram for all message (Unspecified)
system.caches.m_outstandReqHistSeqr::bucket_size            2                       (Unspecified)
system.caches.m_outstandReqHistSeqr::max_bucket           19                       (Unspecified)
system.caches.m_outstandReqHistSeqr::samples    301641331                       (Unspecified)
system.caches.m_outstandReqHistSeqr::mean     1.691322                       (Unspecified)
system.caches.m_outstandReqHistSeqr::gmean     1.427825                       (Unspecified)
system.caches.m_outstandReqHistSeqr::stdev     1.304019                       (Unspecified)
system.caches.m_outstandReqHistSeqr      |   189823031     62.93%     62.93% |    91693273     30.40%     93.33% |    12624848      4.19%     97.51% |     4413623      1.46%     98.98% |     2120974      0.70%     99.68% |      647105      0.21%     99.89% |      214141      0.07%     99.97% |       76631      0.03%     99.99% |       27705      0.01%    100.00% |           0      0.00%    100.00% (Unspecified)
system.caches.m_outstandReqHistSeqr::total    301641331                       (Unspecified)
system.caches.m_latencyHistSeqr::bucket_size          512                       (Unspecified)
system.caches.m_latencyHistSeqr::max_bucket         5119                       (Unspecified)
system.caches.m_latencyHistSeqr::samples    304677596                       (Unspecified)
system.caches.m_latencyHistSeqr::mean        2.661473                       (Unspecified)
system.caches.m_latencyHistSeqr::gmean       1.058145                       (Unspecified)
system.caches.m_latencyHistSeqr::stdev      29.259104                       (Unspecified)
system.caches.m_latencyHistSeqr          |   304491384     99.94%     99.94% |      151302      0.05%     99.99% |       18900      0.01%     99.99% |       10913      0.00%    100.00% |        3471      0.00%    100.00% |        1447      0.00%    100.00% |         169      0.00%    100.00% |          10      0.00%    100.00% |           0      0.00%    100.00% |           0      0.00%    100.00% (Unspecified)
system.caches.m_latencyHistSeqr::total      304677596                       (Unspecified)
system.caches.m_hitLatencyHistSeqr::bucket_size          128                       (Unspecified)
system.caches.m_hitLatencyHistSeqr::max_bucket         1279                       (Unspecified)
system.caches.m_hitLatencyHistSeqr::samples    300701199                       (Unspecified)
system.caches.m_hitLatencyHistSeqr::mean     1.010176                       (Unspecified)
system.caches.m_hitLatencyHistSeqr::gmean     1.007056                       (Unspecified)
system.caches.m_hitLatencyHistSeqr::stdev     0.135585                       (Unspecified)
system.caches.m_hitLatencyHistSeqr       |   300701185    100.00%    100.00% |           5      0.00%    100.00% |           5      0.00%    100.00% |           1      0.00%    100.00% |           2      0.00%    100.00% |           0      0.00%    100.00% |           1      0.00%    100.00% |           0      0.00%    100.00% |           0      0.00%    100.00% |           0      0.00%    100.00% (Unspecified)
system.caches.m_hitLatencyHistSeqr::total    300701199                       (Unspecified)
system.caches.m_missLatencyHistSeqr::bucket_size          512                       (Unspecified)
system.caches.m_missLatencyHistSeqr::max_bucket         5119                       (Unspecified)
system.caches.m_missLatencyHistSeqr::samples      3976397                       (Unspecified)
system.caches.m_missLatencyHistSeqr::mean   127.535074                       (Unspecified)
system.caches.m_missLatencyHistSeqr::gmean    44.645477                       (Unspecified)
system.caches.m_missLatencyHistSeqr::stdev   223.146403                       (Unspecified)
system.caches.m_missLatencyHistSeqr      |     3790188     95.32%     95.32% |      151299      3.80%     99.12% |       18900      0.48%     99.60% |       10913      0.27%     99.87% |        3471      0.09%     99.96% |        1447      0.04%    100.00% |         169      0.00%    100.00% |          10      0.00%    100.00% |           0      0.00%    100.00% |           0      0.00%    100.00% (Unspecified)
system.caches.m_missLatencyHistSeqr::total      3976397                       (Unspecified)
system.caches.delayVCHist.vnet_0::bucket_size           32                       # delay histogram for vnet_0 (Unspecified)
system.caches.delayVCHist.vnet_0::max_bucket          319                       # delay histogram for vnet_0 (Unspecified)
system.caches.delayVCHist.vnet_0::samples     11673077                       # delay histogram for vnet_0 (Unspecified)
system.caches.delayVCHist.vnet_0::mean       2.177006                       # delay histogram for vnet_0 (Unspecified)
system.caches.delayVCHist.vnet_0::stdev      3.568134                       # delay histogram for vnet_0 (Unspecified)
system.caches.delayVCHist.vnet_0         |    11673026    100.00%    100.00% |          44      0.00%    100.00% |           6      0.00%    100.00% |           0      0.00%    100.00% |           0      0.00%    100.00% |           0      0.00%    100.00% |           1      0.00%    100.00% |           0      0.00%    100.00% |           0      0.00%    100.00% |           0      0.00%    100.00% # delay histogram for vnet_0 (Unspecified)
system.caches.delayVCHist.vnet_0::total      11673077                       # delay histogram for vnet_0 (Unspecified)
system.caches.delayVCHist.vnet_1::bucket_size            4                       # delay histogram for vnet_1 (Unspecified)
system.caches.delayVCHist.vnet_1::max_bucket           39                       # delay histogram for vnet_1 (Unspecified)
system.caches.delayVCHist.vnet_1::samples     10718172                       # delay histogram for vnet_1 (Unspecified)
system.caches.delayVCHist.vnet_1::mean       0.052126                       # delay histogram for vnet_1 (Unspecified)
system.caches.delayVCHist.vnet_1::stdev      0.509323                       # delay histogram for vnet_1 (Unspecified)
system.caches.delayVCHist.vnet_1         |    10640189     99.27%     99.27% |       62963      0.59%     99.86% |       14155      0.13%     99.99% |         631      0.01%    100.00% |         216      0.00%    100.00% |          13      0.00%    100.00% |           5      0.00%    100.00% |           0      0.00%    100.00% |           0      0.00%    100.00% |           0      0.00%    100.00% # delay histogram for vnet_1 (Unspecified)
system.caches.delayVCHist.vnet_1::total      10718172                       # delay histogram for vnet_1 (Unspecified)
system.caches.delayVCHist.vnet_2::bucket_size            1                       # delay histogram for vnet_2 (Unspecified)
system.caches.delayVCHist.vnet_2::max_bucket            9                       # delay histogram for vnet_2 (Unspecified)
system.caches.delayVCHist.vnet_2::samples        55847                       # delay histogram for vnet_2 (Unspecified)
system.caches.delayVCHist.vnet_2::mean       0.001289                       # delay histogram for vnet_2 (Unspecified)
system.caches.delayVCHist.vnet_2::stdev      0.050763                       # delay histogram for vnet_2 (Unspecified)
system.caches.delayVCHist.vnet_2         |       55811     99.94%     99.94% |           0      0.00%     99.94% |          36      0.06%    100.00% |           0      0.00%    100.00% |           0      0.00%    100.00% |           0      0.00%    100.00% |           0      0.00%    100.00% |           0      0.00%    100.00% |           0      0.00%    100.00% |           0      0.00%    100.00% # delay histogram for vnet_2 (Unspecified)
system.caches.delayVCHist.vnet_2::total         55847                       # delay histogram for vnet_2 (Unspecified)
system.caches.L1Cache_Controller.Load    |      101045      0.06%      0.06% |       69594      0.04%      0.11% |       77421      0.05%      0.16% |       67110      0.04%      0.20% |       67193      0.04%      0.24% |       67466      0.04%      0.29% |       68259      0.04%      0.33% |   156307008     99.67%    100.00% (Unspecified)
system.caches.L1Cache_Controller.Load::total    156825096                       (Unspecified)
system.caches.L1Cache_Controller.Ifetch  |       86698      0.08%      0.08% |       67441      0.06%      0.14% |       76523      0.07%      0.20% |       67986      0.06%      0.26% |       67940      0.06%      0.33% |       68502      0.06%      0.39% |       69269      0.06%      0.45% |   112285426     99.55%    100.00% (Unspecified)
system.caches.L1Cache_Controller.Ifetch::total    112789785                       (Unspecified)
system.caches.L1Cache_Controller.Store   |       86446      0.25%      0.25% |       52948      0.15%      0.40% |       56869      0.16%      0.56% |       53111      0.15%      0.71% |       53115      0.15%      0.86% |       53777      0.15%      1.02% |       54010      0.15%      1.17% |    34652448     98.83%    100.00% (Unspecified)
system.caches.L1Cache_Controller.Store::total     35062724                       (Unspecified)
system.caches.L1Cache_Controller.Inv     |       10549     19.48%     19.48% |        6427     11.87%     31.35% |        7815     14.43%     45.78% |        6426     11.87%     57.65% |        6461     11.93%     69.58% |        6568     12.13%     81.71% |        6729     12.43%     94.14% |        3173      5.86%    100.00% (Unspecified)
system.caches.L1Cache_Controller.Inv::total        54148                       (Unspecified)
system.caches.L1Cache_Controller.L1_Replacement |       15096      0.38%      0.38% |        8732      0.22%      0.61% |       10166      0.26%      0.87% |        8631      0.22%      1.09% |        8680      0.22%      1.31% |        8717      0.22%      1.53% |        8763      0.22%      1.75% |     3859444     98.25%    100.00% (Unspecified)
system.caches.L1Cache_Controller.L1_Replacement::total      3928229                       (Unspecified)
system.caches.L1Cache_Controller.Fwd_GETX |           0      0.00%      0.00% |           0      0.00%      0.00% |           0      0.00%      0.00% |           0      0.00%      0.00% |           0      0.00%      0.00% |           3     75.00%     75.00% |           1     25.00%    100.00% |           0      0.00%    100.00% (Unspecified)
system.caches.L1Cache_Controller.Fwd_GETX::total            4                       (Unspecified)
system.caches.L1Cache_Controller.Fwd_GETS |         865     53.10%     53.10% |         132      8.10%     61.20% |         120      7.37%     68.57% |         109      6.69%     75.26% |         109      6.69%     81.95% |         133      8.16%     90.12% |          90      5.52%     95.64% |          71      4.36%    100.00% (Unspecified)
system.caches.L1Cache_Controller.Fwd_GETS::total         1629                       (Unspecified)
system.caches.L1Cache_Controller.Fwd_GET_INSTR |          66    100.00%    100.00% |           0      0.00%    100.00% |           0      0.00%    100.00% |           0      0.00%    100.00% |           0      0.00%    100.00% |           0      0.00%    100.00% |           0      0.00%    100.00% |           0      0.00%    100.00% (Unspecified)
system.caches.L1Cache_Controller.Fwd_GET_INSTR::total           66                       (Unspecified)
system.caches.L1Cache_Controller.Data    |           4     12.90%     12.90% |           1      3.23%     16.13% |           1      3.23%     19.35% |           1      3.23%     22.58% |           1      3.23%     25.81% |           3      9.68%     35.48% |           5     16.13%     51.61% |          15     48.39%    100.00% (Unspecified)
system.caches.L1Cache_Controller.Data::total           31                       (Unspecified)
system.caches.L1Cache_Controller.Data_Exclusive |        1802      0.05%      0.05% |        1603      0.04%      0.09% |        2016      0.05%      0.14% |        1588      0.04%      0.18% |        1593      0.04%      0.22% |        1579      0.04%      0.26% |        1645      0.04%      0.31% |     3832539     99.69%    100.00% (Unspecified)
system.caches.L1Cache_Controller.Data_Exclusive::total      3844365                       (Unspecified)
system.caches.L1Cache_Controller.DataS_fromL1 |         243     14.34%     14.34% |         869     51.27%     65.60% |          54      3.19%     68.79% |          57      3.36%     72.15% |          61      3.60%     75.75% |         239     14.10%     89.85% |         107      6.31%     96.17% |          65      3.83%    100.00% (Unspecified)
system.caches.L1Cache_Controller.DataS_fromL1::total         1695                       (Unspecified)
system.caches.L1Cache_Controller.Data_all_Acks |       19165     14.84%     14.84% |       12485      9.67%     24.50% |       14810     11.47%     35.97% |       13289     10.29%     46.26% |       13307     10.30%     56.56% |       13355     10.34%     66.90% |       13590     10.52%     77.43% |       29157     22.57%    100.00% (Unspecified)
system.caches.L1Cache_Controller.Data_all_Acks::total       129158                       (Unspecified)
system.caches.L1Cache_Controller.Ack     |        4378     75.39%     75.39% |         140      2.41%     77.80% |         170      2.93%     80.73% |         164      2.82%     83.55% |         199      3.43%     86.98% |         245      4.22%     91.20% |         255      4.39%     95.59% |         256      4.41%    100.00% (Unspecified)
system.caches.L1Cache_Controller.Ack::total         5807                       (Unspecified)
system.caches.L1Cache_Controller.Ack_all |         675     57.25%     57.25% |          46      3.90%     61.15% |          59      5.00%     66.16% |          62      5.26%     71.42% |          71      6.02%     77.44% |          77      6.53%     83.97% |          79      6.70%     90.67% |         110      9.33%    100.00% (Unspecified)
system.caches.L1Cache_Controller.Ack_all::total         1179                       (Unspecified)
system.caches.L1Cache_Controller.WB_Ack  |         141      0.00%      0.00% |           1      0.00%      0.00% |           0      0.00%      0.00% |           0      0.00%      0.00% |           8      0.00%      0.00% |           0      0.00%      0.00% |           0      0.00%      0.00% |     3834858    100.00%    100.00% (Unspecified)
system.caches.L1Cache_Controller.WB_Ack::total      3835008                       (Unspecified)
system.caches.L1Cache_Controller.NP.Load |         180      0.00%      0.00% |         105      0.00%      0.01% |         445      0.01%      0.02% |          52      0.00%      0.02% |         114      0.00%      0.02% |         101      0.00%      0.03% |         112      0.00%      0.03% |     3842275     99.97%    100.00% (Unspecified)
system.caches.L1Cache_Controller.NP.Load::total      3843384                       (Unspecified)
system.caches.L1Cache_Controller.NP.Ifetch |       14993     18.84%     18.84% |        8702     10.94%     29.78% |       10217     12.84%     42.62% |        8654     10.88%     53.50% |        8634     10.85%     64.35% |        8756     11.00%     75.35% |        8817     11.08%     86.44% |       10792     13.56%    100.00% (Unspecified)
system.caches.L1Cache_Controller.NP.Ifetch::total        79565                       (Unspecified)
system.caches.L1Cache_Controller.NP.Store |          48      0.73%      0.73% |           0      0.00%      0.73% |          51      0.78%      1.51% |           0      0.00%      1.51% |           7      0.11%      1.62% |           7      0.11%      1.72% |          10      0.15%      1.88% |        6436     98.12%    100.00% (Unspecified)
system.caches.L1Cache_Controller.NP.Store::total         6559                       (Unspecified)
system.caches.L1Cache_Controller.NP.Inv  |         460     11.12%     11.12% |         327      7.91%     19.03% |        1190     28.78%     47.81% |         298      7.21%     55.02% |         313      7.57%     62.59% |         316      7.64%     70.23% |         337      8.15%     78.38% |         894     21.62%    100.00% (Unspecified)
system.caches.L1Cache_Controller.NP.Inv::total         4135                       (Unspecified)
system.caches.L1Cache_Controller.I.Load  |        2294     11.56%     11.56% |        2869     14.46%     26.02% |        2936     14.80%     40.82% |        2924     14.74%     55.56% |        2879     14.51%     70.07% |        2912     14.68%     84.75% |        3004     15.14%     99.89% |          21      0.11%    100.00% (Unspecified)
system.caches.L1Cache_Controller.I.Load::total        19839                       (Unspecified)
system.caches.L1Cache_Controller.I.Ifetch |        2435     13.53%     13.53% |        2209     12.27%     25.81% |        2168     12.05%     37.85% |        2217     12.32%     50.17% |        2216     12.31%     62.49% |        2254     12.53%     75.01% |        2245     12.47%     87.49% |        2252     12.51%    100.00% (Unspecified)
system.caches.L1Cache_Controller.I.Ifetch::total        17996                       (Unspecified)
system.caches.L1Cache_Controller.I.Store |        1264     15.99%     15.99% |        1073     13.57%     29.56% |        1064     13.46%     43.02% |        1088     13.76%     56.78% |        1112     14.07%     70.84% |        1146     14.50%     85.34% |        1159     14.66%    100.00% |           0      0.00%    100.00% (Unspecified)
system.caches.L1Cache_Controller.I.Store::total         7906                       (Unspecified)
system.caches.L1Cache_Controller.I.L1_Replacement |         199      3.99%      3.99% |         105      2.10%      6.09% |         159      3.19%      9.27% |          76      1.52%     10.80% |         123      2.46%     13.26% |          64      1.28%     14.54% |          81      1.62%     16.17% |        4185     83.83%    100.00% (Unspecified)
system.caches.L1Cache_Controller.I.L1_Replacement::total         4992                       (Unspecified)
system.caches.L1Cache_Controller.S.Load  |       13681      9.98%      9.98% |       18137     13.23%     23.21% |       15780     11.51%     34.73% |       15353     11.20%     45.93% |       15345     11.20%     57.13% |       15687     11.45%     68.57% |       15639     11.41%     79.98% |       27438     20.02%    100.00% (Unspecified)
system.caches.L1Cache_Controller.S.Load::total       137060                       (Unspecified)
system.caches.L1Cache_Controller.S.Ifetch |       69270      0.06%      0.06% |       56530      0.05%      0.11% |       64138      0.06%      0.17% |       57115      0.05%      0.22% |       57090      0.05%      0.27% |       57492      0.05%      0.32% |       58207      0.05%      0.37% |   112272382     99.63%    100.00% (Unspecified)
system.caches.L1Cache_Controller.S.Ifetch::total    112692224                       (Unspecified)
system.caches.L1Cache_Controller.S.Store |         671     58.45%     58.45% |          45      3.92%     62.37% |          58      5.05%     67.42% |          61      5.31%     72.74% |          70      6.10%     78.83% |          74      6.45%     85.28% |          74      6.45%     91.72% |          95      8.28%    100.00% (Unspecified)
system.caches.L1Cache_Controller.S.Store::total         1148                       (Unspecified)
system.caches.L1Cache_Controller.S.Inv   |        3372     12.45%     12.45% |        3535     13.05%     25.50% |        3590     13.25%     38.75% |        3543     13.08%     51.83% |        3530     13.03%     64.87% |        3634     13.42%     78.28% |        3652     13.48%     91.76% |        2231      8.24%    100.00% (Unspecified)
system.caches.L1Cache_Controller.S.Inv::total        27087                       (Unspecified)
system.caches.L1Cache_Controller.S.L1_Replacement |       14756     16.73%     16.73% |        8626      9.78%     26.50% |       10007     11.34%     37.84% |        8555      9.70%     47.54% |        8549      9.69%     57.23% |        8653      9.81%     67.04% |        8682      9.84%     76.88% |       20399     23.12%    100.00% (Unspecified)
system.caches.L1Cache_Controller.S.L1_Replacement::total        88227                       (Unspecified)
system.caches.L1Cache_Controller.E.Load  |       15453      0.08%      0.08% |       13355      0.07%      0.15% |       18845      0.10%      0.25% |       13629      0.07%      0.32% |       13612      0.07%      0.39% |       13371      0.07%      0.46% |       13824      0.07%      0.53% |    19003001     99.47%    100.00% (Unspecified)
system.caches.L1Cache_Controller.E.Load::total     19105090                       (Unspecified)
system.caches.L1Cache_Controller.E.Store |         442      0.01%      0.01% |         354      0.01%      0.03% |         384      0.01%      0.04% |         322      0.01%      0.05% |         304      0.01%      0.06% |         322      0.01%      0.07% |         317      0.01%      0.08% |     3165394     99.92%    100.00% (Unspecified)
system.caches.L1Cache_Controller.E.Store::total      3167839                       (Unspecified)
system.caches.L1Cache_Controller.E.Inv   |        1195     13.53%     13.53% |        1171     13.26%     26.79% |        1566     17.73%     44.52% |        1207     13.67%     58.19% |        1233     13.96%     72.15% |        1173     13.28%     85.44% |        1274     14.43%     99.86% |          12      0.14%    100.00% (Unspecified)
system.caches.L1Cache_Controller.E.Inv::total         8831                       (Unspecified)
system.caches.L1Cache_Controller.E.L1_Replacement |           0      0.00%      0.00% |           1      0.00%      0.00% |           0      0.00%      0.00% |           0      0.00%      0.00% |           0      0.00%      0.00% |           0      0.00%      0.00% |           0      0.00%      0.00% |      667121    100.00%    100.00% (Unspecified)
system.caches.L1Cache_Controller.E.L1_Replacement::total       667122                       (Unspecified)
system.caches.L1Cache_Controller.E.Fwd_GETX |           0      0.00%      0.00% |           0      0.00%      0.00% |           0      0.00%      0.00% |           0      0.00%      0.00% |           0      0.00%      0.00% |           3     75.00%     75.00% |           1     25.00%    100.00% |           0      0.00%    100.00% (Unspecified)
system.caches.L1Cache_Controller.E.Fwd_GETX::total            4                       (Unspecified)
system.caches.L1Cache_Controller.E.Fwd_GETS |         146     32.52%     32.52% |          71     15.81%     48.33% |          55     12.25%     60.58% |          37      8.24%     68.82% |          36      8.02%     76.84% |          61     13.59%     90.42% |          32      7.13%     97.55% |          11      2.45%    100.00% (Unspecified)
system.caches.L1Cache_Controller.E.Fwd_GETS::total          449                       (Unspecified)
system.caches.L1Cache_Controller.E.Fwd_GET_INSTR |          66    100.00%    100.00% |           0      0.00%    100.00% |           0      0.00%    100.00% |           0      0.00%    100.00% |           0      0.00%    100.00% |           0      0.00%    100.00% |           0      0.00%    100.00% |           0      0.00%    100.00% (Unspecified)
system.caches.L1Cache_Controller.E.Fwd_GET_INSTR::total           66                       (Unspecified)
system.caches.L1Cache_Controller.M.Load  |       69437      0.05%      0.05% |       35128      0.03%      0.08% |       39415      0.03%      0.11% |       35152      0.03%      0.13% |       35243      0.03%      0.16% |       35395      0.03%      0.19% |       35680      0.03%      0.21% |   133434264     99.79%    100.00% (Unspecified)
system.caches.L1Cache_Controller.M.Load::total    133719714                       (Unspecified)
system.caches.L1Cache_Controller.M.Store |       84021      0.26%      0.26% |       51476      0.16%      0.43% |       55312      0.17%      0.60% |       51640      0.16%      0.76% |       51622      0.16%      0.92% |       52228      0.16%      1.09% |       52450      0.16%      1.25% |    31480523     98.75%    100.00% (Unspecified)
system.caches.L1Cache_Controller.M.Store::total     31879272                       (Unspecified)
system.caches.L1Cache_Controller.M.Inv   |        5522     39.18%     39.18% |        1394      9.89%     49.07% |        1469     10.42%     59.49% |        1378      9.78%     69.27% |        1385      9.83%     79.09% |        1445     10.25%     89.34% |        1466     10.40%     99.74% |          36      0.26%    100.00% (Unspecified)
system.caches.L1Cache_Controller.M.Inv::total        14095                       (Unspecified)
system.caches.L1Cache_Controller.M.L1_Replacement |         141      0.00%      0.00% |           0      0.00%      0.00% |           0      0.00%      0.00% |           0      0.00%      0.00% |           8      0.00%      0.00% |           0      0.00%      0.00% |           0      0.00%      0.00% |     3167737    100.00%    100.00% (Unspecified)
system.caches.L1Cache_Controller.M.L1_Replacement::total      3167886                       (Unspecified)
system.caches.L1Cache_Controller.M.Fwd_GETS |         719     60.93%     60.93% |          61      5.17%     66.10% |          65      5.51%     71.61% |          72      6.10%     77.71% |          73      6.19%     83.90% |          72      6.10%     90.00% |          58      4.92%     94.92% |          60      5.08%    100.00% (Unspecified)
system.caches.L1Cache_Controller.M.Fwd_GETS::total         1180                       (Unspecified)
system.caches.L1Cache_Controller.IS.L1_Replacement |           0      0.00%      0.00% |           0      0.00%      0.00% |           0      0.00%      0.00% |           0      0.00%      0.00% |           0      0.00%      0.00% |           0      0.00%      0.00% |           0      0.00%      0.00% |           2    100.00%    100.00% (Unspecified)
system.caches.L1Cache_Controller.IS.L1_Replacement::total            2                       (Unspecified)
system.caches.L1Cache_Controller.IS.Data_Exclusive |        1802      0.05%      0.05% |        1603      0.04%      0.09% |        2016      0.05%      0.14% |        1588      0.04%      0.18% |        1593      0.04%      0.22% |        1579      0.04%      0.26% |        1645      0.04%      0.31% |     3832539     99.69%    100.00% (Unspecified)
system.caches.L1Cache_Controller.IS.Data_Exclusive::total      3844365                       (Unspecified)
system.caches.L1Cache_Controller.IS.DataS_fromL1 |         243     14.34%     14.34% |         869     51.27%     65.60% |          54      3.19%     68.79% |          57      3.36%     72.15% |          61      3.60%     75.75% |         239     14.10%     89.85% |         107      6.31%     96.17% |          65      3.83%    100.00% (Unspecified)
system.caches.L1Cache_Controller.IS.DataS_fromL1::total         1695                       (Unspecified)
system.caches.L1Cache_Controller.IS.Data_all_Acks |       17857     15.57%     15.57% |       11413      9.95%     25.51% |       13696     11.94%     37.45% |       12202     10.64%     48.09% |       12189     10.62%     58.71% |       12205     10.64%     69.35% |       12426     10.83%     80.18% |       22736     19.82%    100.00% (Unspecified)
system.caches.L1Cache_Controller.IS.Data_all_Acks::total       114724                       (Unspecified)
system.caches.L1Cache_Controller.IM.Data |           4     12.90%     12.90% |           1      3.23%     16.13% |           1      3.23%     19.35% |           1      3.23%     22.58% |           1      3.23%     25.81% |           3      9.68%     35.48% |           5     16.13%     51.61% |          15     48.39%    100.00% (Unspecified)
system.caches.L1Cache_Controller.IM.Data::total           31                       (Unspecified)
system.caches.L1Cache_Controller.IM.Data_all_Acks |        1308      9.06%      9.06% |        1072      7.43%     16.49% |        1114      7.72%     24.21% |        1087      7.53%     31.74% |        1118      7.75%     39.48% |        1150      7.97%     47.45% |        1164      8.06%     55.51% |        6421     44.49%    100.00% (Unspecified)
system.caches.L1Cache_Controller.IM.Data_all_Acks::total        14434                       (Unspecified)
system.caches.L1Cache_Controller.SM.Ack  |        4378     75.39%     75.39% |         140      2.41%     77.80% |         170      2.93%     80.73% |         164      2.82%     83.55% |         199      3.43%     86.98% |         245      4.22%     91.20% |         255      4.39%     95.59% |         256      4.41%    100.00% (Unspecified)
system.caches.L1Cache_Controller.SM.Ack::total         5807                       (Unspecified)
system.caches.L1Cache_Controller.SM.Ack_all |         675     57.25%     57.25% |          46      3.90%     61.15% |          59      5.00%     66.16% |          62      5.26%     71.42% |          71      6.02%     77.44% |          77      6.53%     83.97% |          79      6.70%     90.67% |         110      9.33%    100.00% (Unspecified)
system.caches.L1Cache_Controller.SM.Ack_all::total         1179                       (Unspecified)
system.caches.L1Cache_Controller.M_I.Load |           0      0.00%      0.00% |           0      0.00%      0.00% |           0      0.00%      0.00% |           0      0.00%      0.00% |           0      0.00%      0.00% |           0      0.00%      0.00% |           0      0.00%      0.00% |           9    100.00%    100.00% (Unspecified)
system.caches.L1Cache_Controller.M_I.Load::total            9                       (Unspecified)
system.caches.L1Cache_Controller.M_I.WB_Ack |         141      0.00%      0.00% |           1      0.00%      0.00% |           0      0.00%      0.00% |           0      0.00%      0.00% |           8      0.00%      0.00% |           0      0.00%      0.00% |           0      0.00%      0.00% |     3834858    100.00%    100.00% (Unspecified)
system.caches.L1Cache_Controller.M_I.WB_Ack::total      3835008                       (Unspecified)
system.caches.Directory_Controller.Fetch |        5467      0.38%      0.38% |     1419995     99.62%    100.00% (Unspecified)
system.caches.Directory_Controller.Fetch::total      1425462                       (Unspecified)
system.caches.Directory_Controller.Data  |         499      0.04%      0.04% |     1299627     99.96%    100.00% (Unspecified)
system.caches.Directory_Controller.Data::total      1300126                       (Unspecified)
system.caches.Directory_Controller.Memory_Data |        5467      0.38%      0.38% |     1419995     99.62%    100.00% (Unspecified)
system.caches.Directory_Controller.Memory_Data::total      1425462                       (Unspecified)
system.caches.Directory_Controller.Memory_Ack |         499      0.04%      0.04% |     1299627     99.96%    100.00% (Unspecified)
system.caches.Directory_Controller.Memory_Ack::total      1300126                       (Unspecified)
system.caches.Directory_Controller.CleanReplacement |        4696      3.75%      3.75% |      120640     96.25%    100.00% (Unspecified)
system.caches.Directory_Controller.CleanReplacement::total       125336                       (Unspecified)
system.caches.Directory_Controller.I.Fetch |        5467      0.38%      0.38% |     1419995     99.62%    100.00% (Unspecified)
system.caches.Directory_Controller.I.Fetch::total      1425462                       (Unspecified)
system.caches.Directory_Controller.M.Data |         499      0.04%      0.04% |     1299627     99.96%    100.00% (Unspecified)
system.caches.Directory_Controller.M.Data::total      1300126                       (Unspecified)
system.caches.Directory_Controller.M.CleanReplacement |        4696      3.75%      3.75% |      120640     96.25%    100.00% (Unspecified)
system.caches.Directory_Controller.M.CleanReplacement::total       125336                       (Unspecified)
system.caches.Directory_Controller.IM.Memory_Data |        5467      0.38%      0.38% |     1419995     99.62%    100.00% (Unspecified)
system.caches.Directory_Controller.IM.Memory_Data::total      1425462                       (Unspecified)
system.caches.Directory_Controller.MI.Memory_Ack |         499      0.04%      0.04% |     1299627     99.96%    100.00% (Unspecified)
system.caches.Directory_Controller.MI.Memory_Ack::total      1300126                       (Unspecified)
system.caches.L2Cache_Controller.L1_GET_INSTR |       15777     16.17%     16.17% |       16406     16.81%     32.98% |        9345      9.58%     42.56% |        3984      4.08%     46.64% |       12622     12.93%     59.57% |       15486     15.87%     75.44% |       11520     11.81%     87.25% |       12442     12.75%    100.00% (Unspecified)
system.caches.L2Cache_Controller.L1_GET_INSTR::total        97582                       (Unspecified)
system.caches.L2Cache_Controller.L1_GETS |      487273     12.61%     12.61% |      483583     12.52%     25.13% |      481749     12.47%     37.60% |      481353     12.46%     50.05% |      482238     12.48%     62.54% |      481674     12.47%     75.00% |      482822     12.50%     87.50% |      482999     12.50%    100.00% (Unspecified)
system.caches.L2Cache_Controller.L1_GETS::total      3863691                       (Unspecified)
system.caches.L2Cache_Controller.L1_GETX |        2717     18.77%     18.77% |        2043     14.11%     32.88% |         565      3.90%     36.78% |        1408      9.73%     46.51% |        1530     10.57%     57.08% |        3007     20.77%     77.85% |        1255      8.67%     86.52% |        1952     13.48%    100.00% (Unspecified)
system.caches.L2Cache_Controller.L1_GETX::total        14477                       (Unspecified)
system.caches.L2Cache_Controller.L1_UPGRADE |         361     31.15%     31.15% |         155     13.37%     44.52% |          20      1.73%     46.25% |           2      0.17%     46.42% |         155     13.37%     59.79% |           2      0.17%     59.97% |         280     24.16%     84.12% |         184     15.88%    100.00% (Unspecified)
system.caches.L2Cache_Controller.L1_UPGRADE::total         1159                       (Unspecified)
system.caches.L2Cache_Controller.L1_PUTX |      480598     12.53%     12.53% |      479752     12.51%     25.04% |      478871     12.49%     37.53% |      478830     12.49%     50.01% |      478837     12.49%     62.50% |      479547     12.50%     75.00% |      478615     12.48%     87.48% |      479958     12.52%    100.00% (Unspecified)
system.caches.L2Cache_Controller.L1_PUTX::total      3835008                       (Unspecified)
system.caches.L2Cache_Controller.L2_Replacement |      161566     12.56%     12.56% |      160805     12.50%     25.06% |      160194     12.46%     37.52% |      160389     12.47%     49.99% |      160703     12.49%     62.48% |      160925     12.51%     75.00% |      160643     12.49%     87.49% |      160956     12.51%    100.00% (Unspecified)
system.caches.L2Cache_Controller.L2_Replacement::total      1286181                       (Unspecified)
system.caches.L2Cache_Controller.L2_Replacement_clean |       18677     13.41%     13.41% |       17671     12.69%     26.10% |       16064     11.53%     37.63% |       17439     12.52%     50.15% |       17010     12.21%     62.36% |       18141     13.02%     75.39% |       16931     12.16%     87.54% |       17348     12.46%    100.00% (Unspecified)
system.caches.L2Cache_Controller.L2_Replacement_clean::total       139281                       (Unspecified)
system.caches.L2Cache_Controller.Mem_Data |      180243     12.64%     12.64% |      178476     12.52%     25.17% |      176258     12.36%     37.53% |      177828     12.48%     50.01% |      177713     12.47%     62.47% |      179066     12.56%     75.03% |      177574     12.46%     87.49% |      178304     12.51%    100.00% (Unspecified)
system.caches.L2Cache_Controller.Mem_Data::total      1425462                       (Unspecified)
system.caches.L2Cache_Controller.Mem_Ack |      180243     12.64%     12.64% |      178476     12.52%     25.17% |      176258     12.36%     37.53% |      177828     12.48%     50.01% |      177713     12.47%     62.47% |      179066     12.56%     75.03% |      177574     12.46%     87.49% |      178304     12.51%    100.00% (Unspecified)
system.caches.L2Cache_Controller.Mem_Ack::total      1425462                       (Unspecified)
system.caches.L2Cache_Controller.WB_Data |        2525     16.53%     16.53% |        1949     12.76%     29.29% |         985      6.45%     35.74% |        1856     12.15%     47.89% |        1504      9.85%     57.73% |        2726     17.85%     75.58% |        1271      8.32%     83.90% |        2459     16.10%    100.00% (Unspecified)
system.caches.L2Cache_Controller.WB_Data::total        15275                       (Unspecified)
system.caches.L2Cache_Controller.WB_Data_clean |         107     20.78%     20.78% |          30      5.83%     26.60% |          22      4.27%     30.87% |          29      5.63%     36.50% |          78     15.15%     51.65% |          82     15.92%     67.57% |         128     24.85%     92.43% |          39      7.57%    100.00% (Unspecified)
system.caches.L2Cache_Controller.WB_Data_clean::total          515                       (Unspecified)
system.caches.L2Cache_Controller.Ack     |        2937     14.87%     14.87% |        2676     13.55%     28.42% |        1741      8.81%     37.23% |        2474     12.52%     49.75% |        2176     11.02%     60.77% |        2720     13.77%     74.54% |        3098     15.68%     90.22% |        1931      9.78%    100.00% (Unspecified)
system.caches.L2Cache_Controller.Ack::total        19753                       (Unspecified)
system.caches.L2Cache_Controller.Ack_all |        2680     18.53%     18.53% |        1914     13.23%     31.77% |        1232      8.52%     40.28% |        1661     11.49%     51.77% |        1896     13.11%     64.88% |        1531     10.59%     75.47% |        2277     15.74%     91.21% |        1271      8.79%    100.00% (Unspecified)
system.caches.L2Cache_Controller.Ack_all::total        14462                       (Unspecified)
system.caches.L2Cache_Controller.Unblock |         492     29.03%     29.03% |         185     10.91%     39.94% |          40      2.36%     42.30% |          31      1.83%     44.13% |         261     15.40%     59.53% |          84      4.96%     64.48% |         392     23.13%     87.61% |         210     12.39%    100.00% (Unspecified)
system.caches.L2Cache_Controller.Unblock::total         1695                       (Unspecified)
system.caches.L2Cache_Controller.Exclusive_Unblock |      485153     12.57%     12.57% |      483001     12.51%     25.08% |      480636     12.45%     37.53% |      481685     12.48%     50.01% |      481718     12.48%     62.49% |      483212     12.52%     75.01% |      481463     12.47%     87.48% |      483109     12.52%    100.00% (Unspecified)
system.caches.L2Cache_Controller.Exclusive_Unblock::total      3859977                       (Unspecified)
system.caches.L2Cache_Controller.NP.L1_GET_INSTR |         668     12.99%     12.99% |         659     12.82%     25.81% |         508      9.88%     35.69% |         714     13.89%     49.57% |         558     10.85%     60.42% |         642     12.49%     72.91% |         736     14.31%     87.22% |         657     12.78%    100.00% (Unspecified)
system.caches.L2Cache_Controller.NP.L1_GET_INSTR::total         5142                       (Unspecified)
system.caches.L2Cache_Controller.NP.L1_GETS |      177907     12.60%     12.60% |      176510     12.50%     25.10% |      175503     12.43%     37.53% |      176298     12.49%     50.02% |      176354     12.49%     62.51% |      176533     12.50%     75.01% |      176350     12.49%     87.50% |      176497     12.50%    100.00% (Unspecified)
system.caches.L2Cache_Controller.NP.L1_GETS::total      1411952                       (Unspecified)
system.caches.L2Cache_Controller.NP.L1_GETX |        1668     19.93%     19.93% |        1307     15.62%     35.55% |         247      2.95%     38.50% |         816      9.75%     48.26% |         801      9.57%     57.83% |        1891     22.60%     80.43% |         488      5.83%     86.26% |        1150     13.74%    100.00% (Unspecified)
system.caches.L2Cache_Controller.NP.L1_GETX::total         8368                       (Unspecified)
system.caches.L2Cache_Controller.SS.L1_GET_INSTR |       14935     16.44%     16.44% |       15505     17.07%     33.51% |        8681      9.56%     43.06% |        3059      3.37%     46.43% |       11871     13.07%     59.49% |       14613     16.08%     75.58% |       10598     11.67%     87.24% |       11588     12.76%    100.00% (Unspecified)
system.caches.L2Cache_Controller.SS.L1_GET_INSTR::total        90850                       (Unspecified)
system.caches.L2Cache_Controller.SS.L1_GETS |        4446     27.07%     27.07% |        2490     15.16%     42.24% |        1604      9.77%     52.00% |         980      5.97%     57.97% |        1710     10.41%     68.38% |        1283      7.81%     76.20% |        2245     13.67%     89.87% |        1664     10.13%    100.00% (Unspecified)
system.caches.L2Cache_Controller.SS.L1_GETS::total        16422                       (Unspecified)
system.caches.L2Cache_Controller.SS.L1_GETX |           2      6.45%      6.45% |           0      0.00%      6.45% |           0      0.00%      6.45% |           0      0.00%      6.45% |          28     90.32%     96.77% |           0      0.00%     96.77% |           1      3.23%    100.00% |           0      0.00%    100.00% (Unspecified)
system.caches.L2Cache_Controller.SS.L1_GETX::total           31                       (Unspecified)
system.caches.L2Cache_Controller.SS.L1_UPGRADE |         361     31.45%     31.45% |         155     13.50%     44.95% |          20      1.74%     46.69% |           2      0.17%     46.86% |         155     13.50%     60.37% |           2      0.17%     60.54% |         270     23.52%     84.06% |         183     15.94%    100.00% (Unspecified)
system.caches.L2Cache_Controller.SS.L1_UPGRADE::total         1148                       (Unspecified)
system.caches.L2Cache_Controller.SS.L2_Replacement |          68     34.69%     34.69% |           0      0.00%     34.69% |          10      5.10%     39.80% |           0      0.00%     39.80% |          30     15.31%     55.10% |           0      0.00%     55.10% |          77     39.29%     94.39% |          11      5.61%    100.00% (Unspecified)
system.caches.L2Cache_Controller.SS.L2_Replacement::total          196                       (Unspecified)
system.caches.L2Cache_Controller.SS.L2_Replacement_clean |         750     13.80%     13.80% |         680     12.51%     26.31% |         495      9.11%     35.42% |         737     13.56%     48.98% |         609     11.21%     60.18% |         727     13.38%     73.56% |         792     14.57%     88.13% |         645     11.87%    100.00% (Unspecified)
system.caches.L2Cache_Controller.SS.L2_Replacement_clean::total         5435                       (Unspecified)
system.caches.L2Cache_Controller.M.L1_GET_INSTR |           1     20.00%     20.00% |           0      0.00%     20.00% |           0      0.00%     20.00% |           0      0.00%     20.00% |           1     20.00%     40.00% |           1     20.00%     60.00% |           1     20.00%     80.00% |           1     20.00%    100.00% (Unspecified)
system.caches.L2Cache_Controller.M.L1_GET_INSTR::total            5                       (Unspecified)
system.caches.L2Cache_Controller.M.L1_GETS |      304236     12.51%     12.51% |      304338     12.51%     25.02% |      304568     12.52%     37.54% |      304006     12.50%     50.03% |      303718     12.48%     62.52% |      303716     12.48%     75.00% |      303634     12.48%     87.48% |      304499     12.52%    100.00% (Unspecified)
system.caches.L2Cache_Controller.M.L1_GETS::total      2432715                       (Unspecified)
system.caches.L2Cache_Controller.M.L1_GETX |        1047     17.27%     17.27% |         734     12.11%     29.38% |         318      5.25%     34.63% |         589      9.72%     44.34% |         695     11.46%     55.81% |        1113     18.36%     74.17% |         765     12.62%     86.79% |         801     13.21%    100.00% (Unspecified)
system.caches.L2Cache_Controller.M.L1_GETX::total         6062                       (Unspecified)
system.caches.L2Cache_Controller.M.L2_Replacement |      161485     12.56%     12.56% |      160805     12.51%     25.06% |      160183     12.46%     37.52% |      160389     12.47%     50.00% |      160606     12.49%     62.49% |      160925     12.52%     75.00% |      160562     12.49%     87.49% |      160880     12.51%    100.00% (Unspecified)
system.caches.L2Cache_Controller.M.L2_Replacement::total      1285835                       (Unspecified)
system.caches.L2Cache_Controller.M.L2_Replacement_clean |       13938     12.55%     12.55% |       13963     12.57%     25.12% |       13876     12.49%     37.61% |       13924     12.54%     50.15% |       13890     12.51%     62.66% |       13886     12.50%     75.16% |       13728     12.36%     87.52% |       13865     12.48%    100.00% (Unspecified)
system.caches.L2Cache_Controller.M.L2_Replacement_clean::total       111070                       (Unspecified)
system.caches.L2Cache_Controller.MT.L1_GET_INSTR |           7     10.61%     10.61% |          10     15.15%     25.76% |           7     10.61%     36.36% |           6      9.09%     45.45% |           7     10.61%     56.06% |          10     15.15%     71.21% |           9     13.64%     84.85% |          10     15.15%    100.00% (Unspecified)
system.caches.L2Cache_Controller.MT.L1_GET_INSTR::total           66                       (Unspecified)
system.caches.L2Cache_Controller.MT.L1_GETS |         485     29.77%     29.77% |         175     10.74%     40.52% |          33      2.03%     42.54% |          25      1.53%     44.08% |         254     15.59%     59.67% |          74      4.54%     64.21% |         383     23.51%     87.72% |         200     12.28%    100.00% (Unspecified)
system.caches.L2Cache_Controller.MT.L1_GETS::total         1629                       (Unspecified)
system.caches.L2Cache_Controller.MT.L1_GETX |           0      0.00%      0.00% |           0      0.00%      0.00% |           0      0.00%      0.00% |           0      0.00%      0.00% |           4    100.00%    100.00% |           0      0.00%    100.00% |           0      0.00%    100.00% |           0      0.00%    100.00% (Unspecified)
system.caches.L2Cache_Controller.MT.L1_GETX::total            4                       (Unspecified)
system.caches.L2Cache_Controller.MT.L1_PUTX |      480598     12.53%     12.53% |      479752     12.51%     25.04% |      478871     12.49%     37.53% |      478830     12.49%     50.01% |      478837     12.49%     62.50% |      479547     12.50%     75.00% |      478615     12.48%     87.48% |      479958     12.52%    100.00% (Unspecified)
system.caches.L2Cache_Controller.MT.L1_PUTX::total      3835008                       (Unspecified)
system.caches.L2Cache_Controller.MT.L2_Replacement |          13      8.67%      8.67% |           0      0.00%      8.67% |           1      0.67%      9.33% |           0      0.00%      9.33% |          67     44.67%     54.00% |           0      0.00%     54.00% |           4      2.67%     56.67% |          65     43.33%    100.00% (Unspecified)
system.caches.L2Cache_Controller.MT.L2_Replacement::total          150                       (Unspecified)
system.caches.L2Cache_Controller.MT.L2_Replacement_clean |        3989     17.51%     17.51% |        3028     13.29%     30.81% |        1693      7.43%     38.24% |        2778     12.20%     50.44% |        2511     11.02%     61.46% |        3528     15.49%     76.95% |        2411     10.59%     87.54% |        2838     12.46%    100.00% (Unspecified)
system.caches.L2Cache_Controller.MT.L2_Replacement_clean::total        22776                       (Unspecified)
system.caches.L2Cache_Controller.M_I.L1_GETS |           2     10.00%     10.00% |           0      0.00%     10.00% |           2     10.00%     20.00% |           6     30.00%     50.00% |           3     15.00%     65.00% |           1      5.00%     70.00% |           1      5.00%     75.00% |           5     25.00%    100.00% (Unspecified)
system.caches.L2Cache_Controller.M_I.L1_GETS::total           20                       (Unspecified)
system.caches.L2Cache_Controller.M_I.L1_GETX |           0      0.00%      0.00% |           2     18.18%     18.18% |           0      0.00%     18.18% |           3     27.27%     45.45% |           1      9.09%     54.55% |           3     27.27%     81.82% |           1      9.09%     90.91% |           1      9.09%    100.00% (Unspecified)
system.caches.L2Cache_Controller.M_I.L1_GETX::total           11                       (Unspecified)
system.caches.L2Cache_Controller.M_I.Mem_Ack |      180243     12.64%     12.64% |      178476     12.52%     25.17% |      176258     12.36%     37.53% |      177828     12.48%     50.01% |      177713     12.47%     62.47% |      179066     12.56%     75.03% |      177574     12.46%     87.49% |      178304     12.51%    100.00% (Unspecified)
system.caches.L2Cache_Controller.M_I.Mem_Ack::total      1425462                       (Unspecified)
system.caches.L2Cache_Controller.MT_I.WB_Data |          13      8.67%      8.67% |           0      0.00%      8.67% |           1      0.67%      9.33% |           0      0.00%      9.33% |          67     44.67%     54.00% |           0      0.00%     54.00% |           4      2.67%     56.67% |          65     43.33%    100.00% (Unspecified)
system.caches.L2Cache_Controller.MT_I.WB_Data::total          150                       (Unspecified)
system.caches.L2Cache_Controller.MCT_I.WB_Data |        2127     15.25%     15.25% |        1794     12.86%     28.12% |         966      6.93%     35.04% |        1854     13.30%     48.34% |        1254      8.99%     57.33% |        2724     19.53%     76.87% |        1003      7.19%     84.06% |        2223     15.94%    100.00% (Unspecified)
system.caches.L2Cache_Controller.MCT_I.WB_Data::total        13945                       (Unspecified)
system.caches.L2Cache_Controller.MCT_I.Ack_all |        1862     21.08%     21.08% |        1234     13.97%     35.06% |         727      8.23%     43.29% |         924     10.46%     53.75% |        1257     14.23%     67.99% |         804      9.10%     77.09% |        1408     15.94%     93.04% |         615      6.96%    100.00% (Unspecified)
system.caches.L2Cache_Controller.MCT_I.Ack_all::total         8831                       (Unspecified)
system.caches.L2Cache_Controller.I_I.Ack |        2657     13.89%     13.89% |        2676     13.99%     27.88% |        1698      8.88%     36.75% |        2474     12.93%     49.69% |        2099     10.97%     60.66% |        2720     14.22%     74.88% |        2894     15.13%     90.01% |        1912      9.99%    100.00% (Unspecified)
system.caches.L2Cache_Controller.I_I.Ack::total        19130                       (Unspecified)
system.caches.L2Cache_Controller.I_I.Ack_all |         750     13.80%     13.80% |         680     12.51%     26.31% |         495      9.11%     35.42% |         737     13.56%     48.98% |         609     11.21%     60.18% |         727     13.38%     73.56% |         792     14.57%     88.13% |         645     11.87%    100.00% (Unspecified)
system.caches.L2Cache_Controller.I_I.Ack_all::total         5435                       (Unspecified)
system.caches.L2Cache_Controller.S_I.Ack |         280     44.94%     44.94% |           0      0.00%     44.94% |          43      6.90%     51.85% |           0      0.00%     51.85% |          77     12.36%     64.21% |           0      0.00%     64.21% |         204     32.74%     96.95% |          19      3.05%    100.00% (Unspecified)
system.caches.L2Cache_Controller.S_I.Ack::total          623                       (Unspecified)
system.caches.L2Cache_Controller.S_I.Ack_all |          68     34.69%     34.69% |           0      0.00%     34.69% |          10      5.10%     39.80% |           0      0.00%     39.80% |          30     15.31%     55.10% |           0      0.00%     55.10% |          77     39.29%     94.39% |          11      5.61%    100.00% (Unspecified)
system.caches.L2Cache_Controller.S_I.Ack_all::total          196                       (Unspecified)
system.caches.L2Cache_Controller.ISS.L1_GETS |          68     22.52%     22.52% |          43     14.24%     36.75% |          20      6.62%     43.38% |          26      8.61%     51.99% |          37     12.25%     64.24% |          43     14.24%     78.48% |          44     14.57%     93.05% |          21      6.95%    100.00% (Unspecified)
system.caches.L2Cache_Controller.ISS.L1_GETS::total          302                       (Unspecified)
system.caches.L2Cache_Controller.ISS.Mem_Data |      177839     12.60%     12.60% |      176467     12.50%     25.10% |      175483     12.43%     37.53% |      176272     12.49%     50.02% |      176317     12.49%     62.51% |      176490     12.50%     75.01% |      176306     12.49%     87.50% |      176476     12.50%    100.00% (Unspecified)
system.caches.L2Cache_Controller.ISS.Mem_Data::total      1411650                       (Unspecified)
system.caches.L2Cache_Controller.IS.L1_GET_INSTR |         164     10.95%     10.95% |         227     15.15%     26.10% |         147      9.81%     35.91% |         202     13.48%     49.40% |         183     12.22%     61.62% |         218     14.55%     76.17% |         174     11.62%     87.78% |         183     12.22%    100.00% (Unspecified)
system.caches.L2Cache_Controller.IS.L1_GET_INSTR::total         1498                       (Unspecified)
system.caches.L2Cache_Controller.IS.L1_GETS |          53     26.11%     26.11% |          27     13.30%     39.41% |          17      8.37%     47.78% |          12      5.91%     53.69% |          32     15.76%     69.46% |          20      9.85%     79.31% |          34     16.75%     96.06% |           8      3.94%    100.00% (Unspecified)
system.caches.L2Cache_Controller.IS.L1_GETS::total          203                       (Unspecified)
system.caches.L2Cache_Controller.IS.L1_GETX |           0      0.00%      0.00% |           0      0.00%      0.00% |           0      0.00%      0.00% |           0      0.00%      0.00% |           1    100.00%    100.00% |           0      0.00%    100.00% |           0      0.00%    100.00% |           0      0.00%    100.00% (Unspecified)
system.caches.L2Cache_Controller.IS.L1_GETX::total            1                       (Unspecified)
system.caches.L2Cache_Controller.IS.Mem_Data |         736     13.52%     13.52% |         702     12.89%     26.41% |         528      9.70%     36.11% |         740     13.59%     49.71% |         595     10.93%     60.64% |         685     12.58%     73.22% |         780     14.33%     87.55% |         678     12.45%    100.00% (Unspecified)
system.caches.L2Cache_Controller.IS.Mem_Data::total         5444                       (Unspecified)
system.caches.L2Cache_Controller.IM.Mem_Data |        1668     19.93%     19.93% |        1307     15.62%     35.55% |         247      2.95%     38.50% |         816      9.75%     48.26% |         801      9.57%     57.83% |        1891     22.60%     80.43% |         488      5.83%     86.26% |        1150     13.74%    100.00% (Unspecified)
system.caches.L2Cache_Controller.IM.Mem_Data::total         8368                       (Unspecified)
system.caches.L2Cache_Controller.SS_MB.L1_GETS |           0      0.00%      0.00% |           0      0.00%      0.00% |           0      0.00%      0.00% |           0      0.00%      0.00% |           1      4.17%      4.17% |           0      0.00%      4.17% |          23     95.83%    100.00% |           0      0.00%    100.00% (Unspecified)
system.caches.L2Cache_Controller.SS_MB.L1_GETS::total           24                       (Unspecified)
system.caches.L2Cache_Controller.SS_MB.Exclusive_Unblock |         363     30.79%     30.79% |         155     13.15%     43.94% |          20      1.70%     45.63% |           2      0.17%     45.80% |         183     15.52%     61.32% |           2      0.17%     61.49% |         271     22.99%     84.48% |         183     15.52%    100.00% (Unspecified)
system.caches.L2Cache_Controller.SS_MB.Exclusive_Unblock::total         1179                       (Unspecified)
system.caches.L2Cache_Controller.MT_MB.L1_GETS |          13     23.21%     23.21% |           0      0.00%     23.21% |           0      0.00%     23.21% |           0      0.00%     23.21% |          11     19.64%     42.86% |           0      0.00%     42.86% |          17     30.36%     73.21% |          15     26.79%    100.00% (Unspecified)
system.caches.L2Cache_Controller.MT_MB.L1_GETS::total           56                       (Unspecified)
system.caches.L2Cache_Controller.MT_MB.Exclusive_Unblock |      484790     12.56%     12.56% |      482846     12.51%     25.08% |      480616     12.46%     37.53% |      481683     12.48%     50.01% |      481535     12.48%     62.49% |      483210     12.52%     75.02% |      481192     12.47%     87.49% |      482926     12.51%    100.00% (Unspecified)
system.caches.L2Cache_Controller.MT_MB.Exclusive_Unblock::total      3858798                       (Unspecified)
system.caches.L2Cache_Controller.MT_IIB.L1_GET_INSTR |           1      7.14%      7.14% |           3     21.43%     28.57% |           0      0.00%     28.57% |           2     14.29%     42.86% |           2     14.29%     57.14% |           2     14.29%     71.43% |           1      7.14%     78.57% |           3     21.43%    100.00% (Unspecified)
system.caches.L2Cache_Controller.MT_IIB.L1_GET_INSTR::total           14                       (Unspecified)
system.caches.L2Cache_Controller.MT_IIB.L1_GETS |          55     22.45%     22.45% |           0      0.00%     22.45% |           2      0.82%     23.27% |           0      0.00%     23.27% |          62     25.31%     48.57% |           4      1.63%     50.20% |          45     18.37%     68.57% |          77     31.43%    100.00% (Unspecified)
system.caches.L2Cache_Controller.MT_IIB.L1_GETS::total          245                       (Unspecified)
system.caches.L2Cache_Controller.MT_IIB.WB_Data |         384     32.63%     32.63% |         155     13.17%     45.79% |          18      1.53%     47.32% |           2      0.17%     47.49% |         182     15.46%     62.96% |           2      0.17%     63.13% |         264     22.43%     85.56% |         170     14.44%    100.00% (Unspecified)
system.caches.L2Cache_Controller.MT_IIB.WB_Data::total         1177                       (Unspecified)
system.caches.L2Cache_Controller.MT_IIB.WB_Data_clean |         107     20.94%     20.94% |          30      5.87%     26.81% |          22      4.31%     31.12% |          29      5.68%     36.79% |          77     15.07%     51.86% |          82     16.05%     67.91% |         125     24.46%     92.37% |          39      7.63%    100.00% (Unspecified)
system.caches.L2Cache_Controller.MT_IIB.WB_Data_clean::total          511                       (Unspecified)
system.caches.L2Cache_Controller.MT_IIB.Unblock |           1     14.29%     14.29% |           0      0.00%     14.29% |           0      0.00%     14.29% |           0      0.00%     14.29% |           2     28.57%     42.86% |           0      0.00%     42.86% |           3     42.86%     85.71% |           1     14.29%    100.00% (Unspecified)
system.caches.L2Cache_Controller.MT_IIB.Unblock::total            7                       (Unspecified)
system.caches.L2Cache_Controller.MT_IB.WB_Data |           1     33.33%     33.33% |           0      0.00%     33.33% |           0      0.00%     33.33% |           0      0.00%     33.33% |           1     33.33%     66.67% |           0      0.00%     66.67% |           0      0.00%     66.67% |           1     33.33%    100.00% (Unspecified)
system.caches.L2Cache_Controller.MT_IB.WB_Data::total            3                       (Unspecified)
system.caches.L2Cache_Controller.MT_IB.WB_Data_clean |           0      0.00%      0.00% |           0      0.00%      0.00% |           0      0.00%      0.00% |           0      0.00%      0.00% |           1     25.00%     25.00% |           0      0.00%     25.00% |           3     75.00%    100.00% |           0      0.00%    100.00% (Unspecified)
system.caches.L2Cache_Controller.MT_IB.WB_Data_clean::total            4                       (Unspecified)
system.caches.L2Cache_Controller.MT_SB.L1_GET_INSTR |           1     14.29%     14.29% |           2     28.57%     42.86% |           2     28.57%     71.43% |           1     14.29%     85.71% |           0      0.00%     85.71% |           0      0.00%     85.71% |           1     14.29%    100.00% |           0      0.00%    100.00% (Unspecified)
system.caches.L2Cache_Controller.MT_SB.L1_GET_INSTR::total            7                       (Unspecified)
system.caches.L2Cache_Controller.MT_SB.L1_GETS |           8      6.50%      6.50% |           0      0.00%      6.50% |           0      0.00%      6.50% |           0      0.00%      6.50% |          56     45.53%     52.03% |           0      0.00%     52.03% |          46     37.40%     89.43% |          13     10.57%    100.00% (Unspecified)
system.caches.L2Cache_Controller.MT_SB.L1_GETS::total          123                       (Unspecified)
system.caches.L2Cache_Controller.MT_SB.L1_UPGRADE |           0      0.00%      0.00% |           0      0.00%      0.00% |           0      0.00%      0.00% |           0      0.00%      0.00% |           0      0.00%      0.00% |           0      0.00%      0.00% |          10     90.91%     90.91% |           1      9.09%    100.00% (Unspecified)
system.caches.L2Cache_Controller.MT_SB.L1_UPGRADE::total           11                       (Unspecified)
system.caches.L2Cache_Controller.MT_SB.Unblock |         491     29.09%     29.09% |         185     10.96%     40.05% |          40      2.37%     42.42% |          31      1.84%     44.25% |         259     15.34%     59.60% |          84      4.98%     64.57% |         389     23.05%     87.62% |         209     12.38%    100.00% (Unspecified)
system.caches.L2Cache_Controller.MT_SB.Unblock::total         1688                       (Unspecified)
system.caches.RequestType.LD.latency_hist_seqr::bucket_size          512                       (Unspecified)
system.caches.RequestType.LD.latency_hist_seqr::max_bucket         5119                       (Unspecified)
system.caches.RequestType.LD.latency_hist_seqr::samples    156825087                       (Unspecified)
system.caches.RequestType.LD.latency_hist_seqr::mean     4.168816                       (Unspecified)
system.caches.RequestType.LD.latency_hist_seqr::gmean     1.098776                       (Unspecified)
system.caches.RequestType.LD.latency_hist_seqr::stdev    40.521642                       (Unspecified)
system.caches.RequestType.LD.latency_hist_seqr |   156640890     99.88%     99.88% |      149520      0.10%     99.98% |       18789      0.01%     99.99% |       10847      0.01%    100.00% |        3427      0.00%    100.00% |        1435      0.00%    100.00% |         169      0.00%    100.00% |          10      0.00%    100.00% |           0      0.00%    100.00% |           0      0.00%    100.00% (Unspecified)
system.caches.RequestType.LD.latency_hist_seqr::total    156825087                       (Unspecified)
system.caches.RequestType.LD.hit_latency_hist_seqr::bucket_size            1                       (Unspecified)
system.caches.RequestType.LD.hit_latency_hist_seqr::max_bucket            9                       (Unspecified)
system.caches.RequestType.LD.hit_latency_hist_seqr::samples    152961864                       (Unspecified)
system.caches.RequestType.LD.hit_latency_hist_seqr::mean     1.000056                       (Unspecified)
system.caches.RequestType.LD.hit_latency_hist_seqr::gmean     1.000039                       (Unspecified)
system.caches.RequestType.LD.hit_latency_hist_seqr::stdev     0.007497                       (Unspecified)
system.caches.RequestType.LD.hit_latency_hist_seqr |           0      0.00%      0.00% |   152953266     99.99%     99.99% |        8598      0.01%    100.00% |           0      0.00%    100.00% |           0      0.00%    100.00% |           0      0.00%    100.00% |           0      0.00%    100.00% |           0      0.00%    100.00% |           0      0.00%    100.00% |           0      0.00%    100.00% (Unspecified)
system.caches.RequestType.LD.hit_latency_hist_seqr::total    152961864                       (Unspecified)
system.caches.RequestType.LD.miss_latency_hist_seqr::bucket_size          512                       (Unspecified)
system.caches.RequestType.LD.miss_latency_hist_seqr::max_bucket         5119                       (Unspecified)
system.caches.RequestType.LD.miss_latency_hist_seqr::samples      3863223                       (Unspecified)
system.caches.RequestType.LD.miss_latency_hist_seqr::mean   129.633844                       (Unspecified)
system.caches.RequestType.LD.miss_latency_hist_seqr::gmean    45.709893                       (Unspecified)
system.caches.RequestType.LD.miss_latency_hist_seqr::stdev   224.760003                       (Unspecified)
system.caches.RequestType.LD.miss_latency_hist_seqr |     3679026     95.23%     95.23% |      149520      3.87%     99.10% |       18789      0.49%     99.59% |       10847      0.28%     99.87% |        3427      0.09%     99.96% |        1435      0.04%    100.00% |         169      0.00%    100.00% |          10      0.00%    100.00% |           0      0.00%    100.00% |           0      0.00%    100.00% (Unspecified)
system.caches.RequestType.LD.miss_latency_hist_seqr::total      3863223                       (Unspecified)
system.caches.RequestType.ST.latency_hist_seqr::bucket_size          512                       (Unspecified)
system.caches.RequestType.ST.latency_hist_seqr::max_bucket         5119                       (Unspecified)
system.caches.RequestType.ST.latency_hist_seqr::samples     34999226                       (Unspecified)
system.caches.RequestType.ST.latency_hist_seqr::mean     1.142732                       (Unspecified)
system.caches.RequestType.ST.latency_hist_seqr::gmean     1.063178                       (Unspecified)
system.caches.RequestType.ST.latency_hist_seqr::stdev     5.883032                       (Unspecified)
system.caches.RequestType.ST.latency_hist_seqr |    34998089    100.00%    100.00% |        1012      0.00%    100.00% |          61      0.00%    100.00% |          27      0.00%    100.00% |          25      0.00%    100.00% |          12      0.00%    100.00% |           0      0.00%    100.00% |           0      0.00%    100.00% |           0      0.00%    100.00% |           0      0.00%    100.00% (Unspecified)
system.caches.RequestType.ST.latency_hist_seqr::total     34999226                       (Unspecified)
system.caches.RequestType.ST.hit_latency_hist_seqr::bucket_size          128                       (Unspecified)
system.caches.RequestType.ST.hit_latency_hist_seqr::max_bucket         1279                       (Unspecified)
system.caches.RequestType.ST.hit_latency_hist_seqr::samples     34989591                       (Unspecified)
system.caches.RequestType.ST.hit_latency_hist_seqr::mean     1.086803                       (Unspecified)
system.caches.RequestType.ST.hit_latency_hist_seqr::gmean     1.061945                       (Unspecified)
system.caches.RequestType.ST.hit_latency_hist_seqr::stdev     0.351796                       (Unspecified)
system.caches.RequestType.ST.hit_latency_hist_seqr |    34989582    100.00%    100.00% |           4      0.00%    100.00% |           2      0.00%    100.00% |           1      0.00%    100.00% |           1      0.00%    100.00% |           0      0.00%    100.00% |           1      0.00%    100.00% |           0      0.00%    100.00% |           0      0.00%    100.00% |           0      0.00%    100.00% (Unspecified)
system.caches.RequestType.ST.hit_latency_hist_seqr::total     34989591                       (Unspecified)
system.caches.RequestType.ST.miss_latency_hist_seqr::bucket_size          512                       (Unspecified)
system.caches.RequestType.ST.miss_latency_hist_seqr::max_bucket         5119                       (Unspecified)
system.caches.RequestType.ST.miss_latency_hist_seqr::samples         9635                       (Unspecified)
system.caches.RequestType.ST.miss_latency_hist_seqr::mean   204.248677                       (Unspecified)
system.caches.RequestType.ST.miss_latency_hist_seqr::gmean    71.908037                       (Unspecified)
system.caches.RequestType.ST.miss_latency_hist_seqr::stdev   289.857365                       (Unspecified)
system.caches.RequestType.ST.miss_latency_hist_seqr |        8500     88.22%     88.22% |        1010     10.48%     98.70% |          61      0.63%     99.34% |          27      0.28%     99.62% |          25      0.26%     99.88% |          12      0.12%    100.00% |           0      0.00%    100.00% |           0      0.00%    100.00% |           0      0.00%    100.00% |           0      0.00%    100.00% (Unspecified)
system.caches.RequestType.ST.miss_latency_hist_seqr::total         9635                       (Unspecified)
system.caches.RequestType.IFETCH.latency_hist_seqr::bucket_size          256                       (Unspecified)
system.caches.RequestType.IFETCH.latency_hist_seqr::max_bucket         2559                       (Unspecified)
system.caches.RequestType.IFETCH.latency_hist_seqr::samples    112789785                       (Unspecified)
system.caches.RequestType.IFETCH.latency_hist_seqr::mean     1.025351                       (Unspecified)
system.caches.RequestType.IFETCH.latency_hist_seqr::gmean     1.002400                       (Unspecified)
system.caches.RequestType.IFETCH.latency_hist_seqr::stdev     2.334083                       (Unspecified)
system.caches.RequestType.IFETCH.latency_hist_seqr |   112787429    100.00%    100.00% |        2218      0.00%    100.00% |          63      0.00%    100.00% |          19      0.00%    100.00% |           8      0.00%    100.00% |          27      0.00%    100.00% |          13      0.00%    100.00% |           6      0.00%    100.00% |           1      0.00%    100.00% |           1      0.00%    100.00% (Unspecified)
system.caches.RequestType.IFETCH.latency_hist_seqr::total    112789785                       (Unspecified)
system.caches.RequestType.IFETCH.hit_latency_hist_seqr::bucket_size            1                       (Unspecified)
system.caches.RequestType.IFETCH.hit_latency_hist_seqr::max_bucket            9                       (Unspecified)
system.caches.RequestType.IFETCH.hit_latency_hist_seqr::samples    112692224                       (Unspecified)
system.caches.RequestType.IFETCH.hit_latency_hist_seqr::mean            1                       (Unspecified)
system.caches.RequestType.IFETCH.hit_latency_hist_seqr::gmean            1                       (Unspecified)
system.caches.RequestType.IFETCH.hit_latency_hist_seqr |           0      0.00%      0.00% |   112692224    100.00%    100.00% |           0      0.00%    100.00% |           0      0.00%    100.00% |           0      0.00%    100.00% |           0      0.00%    100.00% |           0      0.00%    100.00% |           0      0.00%    100.00% |           0      0.00%    100.00% |           0      0.00%    100.00% (Unspecified)
system.caches.RequestType.IFETCH.hit_latency_hist_seqr::total    112692224                       (Unspecified)
system.caches.RequestType.IFETCH.miss_latency_hist_seqr::bucket_size          256                       (Unspecified)
system.caches.RequestType.IFETCH.miss_latency_hist_seqr::max_bucket         2559                       (Unspecified)
system.caches.RequestType.IFETCH.miss_latency_hist_seqr::samples        97561                       (Unspecified)
system.caches.RequestType.IFETCH.miss_latency_hist_seqr::mean    30.307900                       (Unspecified)
system.caches.RequestType.IFETCH.miss_latency_hist_seqr::gmean    15.974357                       (Unspecified)
system.caches.RequestType.IFETCH.miss_latency_hist_seqr::stdev    73.757614                       (Unspecified)
system.caches.RequestType.IFETCH.miss_latency_hist_seqr |       95205     97.59%     97.59% |        2218      2.27%     99.86% |          63      0.06%     99.92% |          19      0.02%     99.94% |           8      0.01%     99.95% |          27      0.03%     99.98% |          13      0.01%     99.99% |           6      0.01%    100.00% |           1      0.00%    100.00% |           1      0.00%    100.00% (Unspecified)
system.caches.RequestType.IFETCH.miss_latency_hist_seqr::total        97561                       (Unspecified)
system.caches.RequestType.RMW_Read.latency_hist_seqr::bucket_size          256                       (Unspecified)
system.caches.RequestType.RMW_Read.latency_hist_seqr::max_bucket         2559                       (Unspecified)
system.caches.RequestType.RMW_Read.latency_hist_seqr::samples        37106                       (Unspecified)
system.caches.RequestType.RMW_Read.latency_hist_seqr::mean    32.111896                       (Unspecified)
system.caches.RequestType.RMW_Read.latency_hist_seqr::gmean     2.107872                       (Unspecified)
system.caches.RequestType.RMW_Read.latency_hist_seqr::stdev   126.080135                       (Unspecified)
system.caches.RequestType.RMW_Read.latency_hist_seqr |       34924     94.12%     94.12% |        1566      4.22%     98.34% |         459      1.24%     99.58% |         118      0.32%     99.89% |           6      0.02%     99.91% |           3      0.01%     99.92% |           4      0.01%     99.93% |          12      0.03%     99.96% |          12      0.03%     99.99% |           2      0.01%    100.00% (Unspecified)
system.caches.RequestType.RMW_Read.latency_hist_seqr::total        37106                       (Unspecified)
system.caches.RequestType.RMW_Read.hit_latency_hist_seqr::bucket_size           64                       (Unspecified)
system.caches.RequestType.RMW_Read.hit_latency_hist_seqr::max_bucket          639                       (Unspecified)
system.caches.RequestType.RMW_Read.hit_latency_hist_seqr::samples        32240                       (Unspecified)
system.caches.RequestType.RMW_Read.hit_latency_hist_seqr::mean     1.438803                       (Unspecified)
system.caches.RequestType.RMW_Read.hit_latency_hist_seqr::gmean     1.182420                       (Unspecified)
system.caches.RequestType.RMW_Read.hit_latency_hist_seqr::stdev     5.429102                       (Unspecified)
system.caches.RequestType.RMW_Read.hit_latency_hist_seqr |       32201     99.88%     99.88% |          34      0.11%     99.98% |           0      0.00%     99.98% |           1      0.00%     99.99% |           1      0.00%     99.99% |           2      0.01%    100.00% |           0      0.00%    100.00% |           0      0.00%    100.00% |           1      0.00%    100.00% |           0      0.00%    100.00% (Unspecified)
system.caches.RequestType.RMW_Read.hit_latency_hist_seqr::total        32240                       (Unspecified)
system.caches.RequestType.RMW_Read.miss_latency_hist_seqr::bucket_size          256                       (Unspecified)
system.caches.RequestType.RMW_Read.miss_latency_hist_seqr::max_bucket         2559                       (Unspecified)
system.caches.RequestType.RMW_Read.miss_latency_hist_seqr::samples         4866                       (Unspecified)
system.caches.RequestType.RMW_Read.miss_latency_hist_seqr::mean   235.338471                       (Unspecified)
system.caches.RequestType.RMW_Read.miss_latency_hist_seqr::gmean    97.127088                       (Unspecified)
system.caches.RequestType.RMW_Read.miss_latency_hist_seqr::stdev   271.107797                       (Unspecified)
system.caches.RequestType.RMW_Read.miss_latency_hist_seqr |        2688     55.24%     55.24% |        1563     32.12%     87.36% |         458      9.41%     96.77% |         118      2.42%     99.20% |           6      0.12%     99.32% |           3      0.06%     99.38% |           4      0.08%     99.47% |          12      0.25%     99.71% |          12      0.25%     99.96% |           2      0.04%    100.00% (Unspecified)
system.caches.RequestType.RMW_Read.miss_latency_hist_seqr::total         4866                       (Unspecified)
system.caches.RequestType.Locked_RMW_Read.latency_hist_seqr::bucket_size          256                       (Unspecified)
system.caches.RequestType.Locked_RMW_Read.latency_hist_seqr::max_bucket         2559                       (Unspecified)
system.caches.RequestType.Locked_RMW_Read.latency_hist_seqr::samples        13196                       (Unspecified)
[...]
system.o3Cpu7.iew.idleCycles                        0                       # Number of cycles IEW is idle (Cycle)
system.o3Cpu7.iew.squashCycles               18298890                       # Number of cycles IEW is squashing (Cycle)
system.o3Cpu7.iew.blockCycles               160145054                       # Number of cycles IEW is blocking (Cycle)
system.o3Cpu7.iew.unblockCycles               1596266                       # Number of cycles IEW is unblocking (Cycle)
system.o3Cpu7.iew.dispatchedInsts          1122959742                       # Number of instructions dispatched to IQ (Count)
system.o3Cpu7.iew.dispSquashedInsts            506878                       # Number of squashed instructions skipped by dispatch (Count)
system.o3Cpu7.iew.dispLoadInsts             192080401                       # Number of dispatched load instructions (Count)
system.o3Cpu7.iew.dispStoreInsts             58697012                       # Number of dispatched store instructions (Count)
system.o3Cpu7.iew.dispNonSpecInsts               6067                       # Number of dispatched non-speculative instructions (Count)
system.o3Cpu7.iew.iqFullEvents                 214458                       # Number of times the IQ has become full, causing a stall (Count)
system.o3Cpu7.iew.lsqFullEvents               1106180                       # Number of times the LSQ has become full, causing a stall (Count)
system.o3Cpu7.iew.memOrderViolationEvents         2716                       # Number of memory order violations (Count)
system.o3Cpu7.iew.predictedTakenIncorrect      9658158                       # Number of branches that were predicted taken incorrectly (Count)
system.o3Cpu7.iew.predictedNotTakenIncorrect     10157394                       # Number of branches that were predicted not taken incorrectly (Count)
system.o3Cpu7.iew.branchMispredicts          19815552                       # Number of branch mispredicts detected at execute (Count)
system.o3Cpu7.iew.instsToCommit             982586869                       # Cumulative count of insts sent to commit (Count)
system.o3Cpu7.iew.writebackCount            970185380                       # Cumulative count of insts written-back (Count)
system.o3Cpu7.iew.producerInst              714977101                       # Number of instructions producing a value (Count)
system.o3Cpu7.iew.consumerInst              952827447                       # Number of instructions consuming a value (Count)
system.o3Cpu7.iew.wbRate                     1.281452                       # Insts written-back per cycle ((Count/Cycle))
system.o3Cpu7.iew.wbFanout                   0.750374                       # Average fanout of values written-back ((Count/Count))
system.o3Cpu7.interrupts.clk_domain.clock         3200                       # Clock period in ticks (Tick)
system.o3Cpu7.lsq0.forwLoads                   742183                       # Number of loads that had data forwarded from stores (Count)
system.o3Cpu7.lsq0.squashedLoads             65171159                       # Number of loads squashed (Count)
system.o3Cpu7.lsq0.ignoredResponses               110                       # Number of memory responses ignored because the instruction is squashed (Count)
system.o3Cpu7.lsq0.memOrderViolation             2716                       # Number of memory ordering violations (Count)
system.o3Cpu7.lsq0.squashedStores            24050833                       # Number of stores squashed (Count)
system.o3Cpu7.lsq0.rescheduledLoads                29                       # Number of loads that were rescheduled (Count)
system.o3Cpu7.lsq0.blockedByCache               18619                       # Number of times an access to memory failed due to the cache being blocked (Count)
system.o3Cpu7.lsq0.loadToUse::samples       126909234                       # Distribution of cycle latency between the first time a load is issued and its completion (Unspecified)
system.o3Cpu7.lsq0.loadToUse::mean           7.322849                       # Distribution of cycle latency between the first time a load is issued and its completion (Unspecified)
system.o3Cpu7.lsq0.loadToUse::stdev         45.148742                       # Distribution of cycle latency between the first time a load is issued and its completion (Unspecified)
system.o3Cpu7.lsq0.loadToUse::0-9           121518245     95.75%     95.75% # Distribution of cycle latency between the first time a load is issued and its completion (Unspecified)
system.o3Cpu7.lsq0.loadToUse::10-19           3549908      2.80%     98.55% # Distribution of cycle latency between the first time a load is issued and its completion (Unspecified)
system.o3Cpu7.lsq0.loadToUse::20-29             62345      0.05%     98.60% # Distribution of cycle latency between the first time a load is issued and its completion (Unspecified)
system.o3Cpu7.lsq0.loadToUse::30-39             19970      0.02%     98.61% # Distribution of cycle latency between the first time a load is issued and its completion (Unspecified)
system.o3Cpu7.lsq0.loadToUse::40-49             22098      0.02%     98.63% # Distribution of cycle latency between the first time a load is issued and its completion (Unspecified)
system.o3Cpu7.lsq0.loadToUse::50-59             15813      0.01%     98.64% # Distribution of cycle latency between the first time a load is issued and its completion (Unspecified)
system.o3Cpu7.lsq0.loadToUse::60-69             16159      0.01%     98.66% # Distribution of cycle latency between the first time a load is issued and its completion (Unspecified)
system.o3Cpu7.lsq0.loadToUse::70-79             15330      0.01%     98.67% # Distribution of cycle latency between the first time a load is issued and its completion (Unspecified)
system.o3Cpu7.lsq0.loadToUse::80-89             16265      0.01%     98.68% # Distribution of cycle latency between the first time a load is issued and its completion (Unspecified)
system.o3Cpu7.lsq0.loadToUse::90-99             17032      0.01%     98.70% # Distribution of cycle latency between the first time a load is issued and its completion (Unspecified)
system.o3Cpu7.lsq0.loadToUse::100-109           18619      0.01%     98.71% # Distribution of cycle latency between the first time a load is issued and its completion (Unspecified)
system.o3Cpu7.lsq0.loadToUse::110-119           20830      0.02%     98.73% # Distribution of cycle latency between the first time a load is issued and its completion (Unspecified)
system.o3Cpu7.lsq0.loadToUse::120-129           24821      0.02%     98.75% # Distribution of cycle latency between the first time a load is issued and its completion (Unspecified)
system.o3Cpu7.lsq0.loadToUse::130-139           28765      0.02%     98.77% # Distribution of cycle latency between the first time a load is issued and its completion (Unspecified)
system.o3Cpu7.lsq0.loadToUse::140-149           36342      0.03%     98.80% # Distribution of cycle latency between the first time a load is issued and its completion (Unspecified)
system.o3Cpu7.lsq0.loadToUse::150-159           40732      0.03%     98.83% # Distribution of cycle latency between the first time a load is issued and its completion (Unspecified)
system.o3Cpu7.lsq0.loadToUse::160-169           49358      0.04%     98.87% # Distribution of cycle latency between the first time a load is issued and its completion (Unspecified)
system.o3Cpu7.lsq0.loadToUse::170-179           76776      0.06%     98.93% # Distribution of cycle latency between the first time a load is issued and its completion (Unspecified)
system.o3Cpu7.lsq0.loadToUse::180-189           74020      0.06%     98.99% # Distribution of cycle latency between the first time a load is issued and its completion (Unspecified)
system.o3Cpu7.lsq0.loadToUse::190-199          130023      0.10%     99.09% # Distribution of cycle latency between the first time a load is issued and its completion (Unspecified)
system.o3Cpu7.lsq0.loadToUse::200-209           57173      0.05%     99.13% # Distribution of cycle latency between the first time a load is issued and its completion (Unspecified)
system.o3Cpu7.lsq0.loadToUse::210-219          270187      0.21%     99.35% # Distribution of cycle latency between the first time a load is issued and its completion (Unspecified)
system.o3Cpu7.lsq0.loadToUse::220-229          458901      0.36%     99.71% # Distribution of cycle latency between the first time a load is issued and its completion (Unspecified)
system.o3Cpu7.lsq0.loadToUse::230-239           39000      0.03%     99.74% # Distribution of cycle latency between the first time a load is issued and its completion (Unspecified)
system.o3Cpu7.lsq0.loadToUse::240-249           17118      0.01%     99.75% # Distribution of cycle latency between the first time a load is issued and its completion (Unspecified)
system.o3Cpu7.lsq0.loadToUse::250-259            7370      0.01%     99.76% # Distribution of cycle latency between the first time a load is issued and its completion (Unspecified)
system.o3Cpu7.lsq0.loadToUse::260-269            5625      0.00%     99.76% # Distribution of cycle latency between the first time a load is issued and its completion (Unspecified)
system.o3Cpu7.lsq0.loadToUse::270-279            2983      0.00%     99.77% # Distribution of cycle latency between the first time a load is issued and its completion (Unspecified)
system.o3Cpu7.lsq0.loadToUse::280-289            7241      0.01%     99.77% # Distribution of cycle latency between the first time a load is issued and its completion (Unspecified)
system.o3Cpu7.lsq0.loadToUse::290-299           18117      0.01%     99.79% # Distribution of cycle latency between the first time a load is issued and its completion (Unspecified)
system.o3Cpu7.lsq0.loadToUse::overflows        272068      0.21%    100.00% # Distribution of cycle latency between the first time a load is issued and its completion (Unspecified)
system.o3Cpu7.lsq0.loadToUse::min_value             2                       # Distribution of cycle latency between the first time a load is issued and its completion (Unspecified)
system.o3Cpu7.lsq0.loadToUse::max_value          3796                       # Distribution of cycle latency between the first time a load is issued and its completion (Unspecified)
system.o3Cpu7.lsq0.loadToUse::total         126909234                       # Distribution of cycle latency between the first time a load is issued and its completion (Unspecified)
system.o3Cpu7.mmu.dtb.rdAccesses            172183102                       # TLB accesses on read requests (Count)
system.o3Cpu7.mmu.dtb.wrAccesses             46017468                       # TLB accesses on write requests (Count)
system.o3Cpu7.mmu.dtb.rdMisses                  11707                       # TLB misses on read requests (Count)
system.o3Cpu7.mmu.dtb.wrMisses                   4420                       # TLB misses on write requests (Count)
system.o3Cpu7.mmu.dtb.walker.power_state.pwrStateResidencyTicks::UNDEFINED 152433364800                       # Cumulative time (in ticks) in various power states (Tick)
system.o3Cpu7.mmu.itb.rdAccesses                    0                       # TLB accesses on read requests (Count)
system.o3Cpu7.mmu.itb.wrAccesses            112286246                       # TLB accesses on write requests (Count)
system.o3Cpu7.mmu.itb.rdMisses                      0                       # TLB misses on read requests (Count)
system.o3Cpu7.mmu.itb.wrMisses                    210                       # TLB misses on write requests (Count)
system.o3Cpu7.mmu.itb.walker.power_state.pwrStateResidencyTicks::UNDEFINED 152433364800                       # Cumulative time (in ticks) in various power states (Tick)
system.o3Cpu7.power_state.pwrStateResidencyTicks::OFF 152433364800                       # Cumulative time (in ticks) in various power states (Tick)
system.o3Cpu7.rename.squashCycles            18298890                       # Number of cycles rename is squashing (Cycle)
system.o3Cpu7.rename.idleCycles             126372608                       # Number of cycles rename is idle (Cycle)
system.o3Cpu7.rename.blockCycles            275060867                       # Number of cycles rename is blocking (Cycle)
system.o3Cpu7.rename.serializeStallCycles       177687                       # count of cycles rename stalled for serializing inst (Cycle)
system.o3Cpu7.rename.runCycles              319711748                       # Number of cycles rename is running (Cycle)
system.o3Cpu7.rename.unblockCycles           16206351                       # Number of cycles rename is unblocking (Cycle)
system.o3Cpu7.rename.renamedInsts          1231933055                       # Number of instructions processed by rename (Count)
system.o3Cpu7.rename.ROBFullEvents            2702407                       # Number of times rename has blocked due to ROB full (Count)
system.o3Cpu7.rename.IQFullEvents             5371623                       # Number of times rename has blocked due to IQ full (Count)
system.o3Cpu7.rename.LQFullEvents             4404634                       # Number of times rename has blocked due to LQ full (Count)
system.o3Cpu7.rename.SQFullEvents               90382                       # Number of times rename has blocked due to SQ full (Count)
system.o3Cpu7.rename.renamedOperands       1994636202                       # Number of destination operands rename has renamed (Count)
system.o3Cpu7.rename.lookups               4223043390                       # Number of register rename lookups that rename has made (Count)
system.o3Cpu7.rename.intLookups            1284959264                       # Number of integer rename lookups (Count)
system.o3Cpu7.rename.committedMaps         1174185419                       # Number of HB maps that are committed (Count)
system.o3Cpu7.rename.undoneMaps             820450704                       # Number of HB maps that are undone due to squashing (Count)
system.o3Cpu7.rename.serializing                 6146                       # count of serializing insts renamed (Count)
system.o3Cpu7.rename.tempSerializing             6253                       # count of temporary serializing insts renamed (Count)
system.o3Cpu7.rename.skidInsts               32105120                       # count of insts added to the skid buffer (Count)
system.o3Cpu7.rob.reads                    1663342324                       # The number of ROB reads (Count)
system.o3Cpu7.rob.writes                   2350922380                       # The number of ROB writes (Count)
system.o3Cpu7.thread_0.numInsts             410317048                       # Number of Instructions committed (Count)
system.o3Cpu7.thread_0.numOps               732461431                       # Number of Ops committed (Count)
system.o3Cpu7.thread_0.numMemRefs                   0                       # Number of Memory References (Count)
system.pc.bad_addr.power_state.pwrStateResidencyTicks::UNDEFINED 152433364800                       # Cumulative time (in ticks) in various power states (Tick)
system.pc.com_1.power_state.pwrStateResidencyTicks::UNDEFINED 152433364800                       # Cumulative time (in ticks) in various power states (Tick)
system.pc.default_bus.power_state.pwrStateResidencyTicks::UNDEFINED 152433364800                       # Cumulative time (in ticks) in various power states (Tick)
system.pc.empty_isa.power_state.pwrStateResidencyTicks::UNDEFINED 152433364800                       # Cumulative time (in ticks) in various power states (Tick)
system.pc.fake_com_2.power_state.pwrStateResidencyTicks::UNDEFINED 152433364800                       # Cumulative time (in ticks) in various power states (Tick)
system.pc.fake_com_3.power_state.pwrStateResidencyTicks::UNDEFINED 152433364800                       # Cumulative time (in ticks) in various power states (Tick)
system.pc.fake_com_4.power_state.pwrStateResidencyTicks::UNDEFINED 152433364800                       # Cumulative time (in ticks) in various power states (Tick)
system.pc.fake_floppy.power_state.pwrStateResidencyTicks::UNDEFINED 152433364800                       # Cumulative time (in ticks) in various power states (Tick)
system.pc.pci_host.power_state.pwrStateResidencyTicks::UNDEFINED 152433364800                       # Cumulative time (in ticks) in various power states (Tick)
system.pc.south_bridge.cmos.power_state.pwrStateResidencyTicks::UNDEFINED 152433364800                       # Cumulative time (in ticks) in various power states (Tick)
system.pc.south_bridge.dma1.power_state.pwrStateResidencyTicks::UNDEFINED 152433364800                       # Cumulative time (in ticks) in various power states (Tick)
system.pc.south_bridge.ide.disks0.IdeDisk.dmaReadFullPages            0                       # Number of full page size DMA reads (not PRD). (Count)
system.pc.south_bridge.ide.disks0.IdeDisk.dmaReadBytes            0                       # Number of bytes transfered via DMA reads (not PRD). (Byte)
system.pc.south_bridge.ide.disks0.IdeDisk.dmaReadTxs            0                       # Number of DMA read transactions (not PRD). (Count)
system.pc.south_bridge.ide.disks0.IdeDisk.dmaWriteFullPages            0                       # Number of full page size DMA writes. (Count)
system.pc.south_bridge.ide.disks0.IdeDisk.dmaWriteBytes            0                       # Number of bytes transfered via DMA writes. (Byte)
system.pc.south_bridge.ide.disks0.IdeDisk.dmaWriteTxs            0                       # Number of DMA write transactions. (Count)
system.pc.south_bridge.ide.disks1.IdeDisk.dmaReadFullPages            0                       # Number of full page size DMA reads (not PRD). (Count)
system.pc.south_bridge.ide.disks1.IdeDisk.dmaReadBytes            0                       # Number of bytes transfered via DMA reads (not PRD). (Byte)
system.pc.south_bridge.ide.disks1.IdeDisk.dmaReadTxs            0                       # Number of DMA read transactions (not PRD). (Count)
system.pc.south_bridge.ide.disks1.IdeDisk.dmaWriteFullPages            0                       # Number of full page size DMA writes. (Count)
system.pc.south_bridge.ide.disks1.IdeDisk.dmaWriteBytes            0                       # Number of bytes transfered via DMA writes. (Byte)
system.pc.south_bridge.ide.disks1.IdeDisk.dmaWriteTxs            0                       # Number of DMA write transactions. (Count)
system.pc.south_bridge.ide.power_state.pwrStateResidencyTicks::UNDEFINED 152433364800                       # Cumulative time (in ticks) in various power states (Tick)
system.pc.south_bridge.io_apic.power_state.pwrStateResidencyTicks::UNDEFINED 152433364800                       # Cumulative time (in ticks) in various power states (Tick)
system.pc.south_bridge.keyboard.power_state.pwrStateResidencyTicks::UNDEFINED 152433364800                       # Cumulative time (in ticks) in various power states (Tick)
system.pc.south_bridge.pic1.power_state.pwrStateResidencyTicks::UNDEFINED 152433364800                       # Cumulative time (in ticks) in various power states (Tick)
system.pc.south_bridge.pic2.power_state.pwrStateResidencyTicks::UNDEFINED 152433364800                       # Cumulative time (in ticks) in various power states (Tick)
system.pc.south_bridge.pit.power_state.pwrStateResidencyTicks::UNDEFINED 152433364800                       # Cumulative time (in ticks) in various power states (Tick)
system.pc.south_bridge.speaker.power_state.pwrStateResidencyTicks::UNDEFINED 152433364800                       # Cumulative time (in ticks) in various power states (Tick)
system.workload.inst.arm                            0                       # number of arm instructions executed (Count)
system.workload.inst.quiesce                        0                       # number of quiesce instructions executed (Count)

---------- End Simulation Statistics   ----------
