
---------- Begin Simulation Statistics ----------
simSeconds                                   0.041763                       # Number of seconds simulated (Second)
simTicks                                  41762974000                       # Number of ticks simulated (Tick)
finalTick                                217945165081400                       # Number of ticks from beginning of simulation (restored from checkpoints and never reset) (Tick)
simFreq                                  1000000000000                       # The number of ticks per simulated second ((Tick/Second))
hostSeconds                                  12446.97                       # Real time elapsed on the host (Second)
hostTickRate                                  3355272                       # The number of ticks simulated per host second (ticks/s) ((Tick/Second))
hostMemory                                   19936352                       # Number of bytes of host memory used (Byte)
simInsts                                    129829279                       # Number of instructions simulated (Count)
simOps                                      224330531                       # Number of ops (including micro ops) simulated (Count)
hostInstRate                                    10431                       # Simulator instruction rate (inst/s) ((Count/Second))
hostOpRate                                      18023                       # Simulator op (including micro ops) rate (op/s) ((Count/Second))
system.caches.delayHistogram::bucket_size           16                       # delay histogram for all message (Unspecified)
system.caches.delayHistogram::max_bucket          159                       # delay histogram for all message (Unspecified)
system.caches.delayHistogram::samples        33423146                       # delay histogram for all message (Unspecified)
system.caches.delayHistogram::mean           1.631477                       # delay histogram for all message (Unspecified)
system.caches.delayHistogram::stdev          5.895235                       # delay histogram for all message (Unspecified)
system.caches.delayHistogram             |    32493249     97.22%     97.22% |      622591      1.86%     99.08% |      182778      0.55%     99.63% |       80132      0.24%     99.87% |       33213      0.10%     99.97% |        9446      0.03%     99.99% |        1624      0.00%    100.00% |         111      0.00%    100.00% |           2      0.00%    100.00% |           0      0.00%    100.00% # delay histogram for all message (Unspecified)
system.caches.delayHistogram::total          33423146                       # delay histogram for all message (Unspecified)
system.caches.m_outstandReqHistSeqr::bucket_size            2                       (Unspecified)
system.caches.m_outstandReqHistSeqr::max_bucket           19                       (Unspecified)
system.caches.m_outstandReqHistSeqr::samples    126406084                       (Unspecified)
system.caches.m_outstandReqHistSeqr::mean     2.548317                       (Unspecified)
system.caches.m_outstandReqHistSeqr::gmean     1.883475                       (Unspecified)
system.caches.m_outstandReqHistSeqr::stdev     2.512763                       (Unspecified)
system.caches.m_outstandReqHistSeqr      |    58682084     46.42%     46.42% |    43271129     34.23%     80.66% |    12675305     10.03%     90.68% |     4728410      3.74%     94.42% |     2705198      2.14%     96.56% |     1801375      1.43%     97.99% |     1240877      0.98%     98.97% |      883753      0.70%     99.67% |      417953      0.33%    100.00% |           0      0.00%    100.00% (Unspecified)
system.caches.m_outstandReqHistSeqr::total    126406084                       (Unspecified)
system.caches.m_latencyHistSeqr::bucket_size          512                       (Unspecified)
system.caches.m_latencyHistSeqr::max_bucket         5119                       (Unspecified)
system.caches.m_latencyHistSeqr::samples    126410192                       (Unspecified)
system.caches.m_latencyHistSeqr::mean       17.736396                       (Unspecified)
system.caches.m_latencyHistSeqr::gmean       1.262471                       (Unspecified)
system.caches.m_latencyHistSeqr::stdev     127.022524                       (Unspecified)
system.caches.m_latencyHistSeqr          |   124355403     98.37%     98.37% |     1443652      1.14%     99.52% |      476115      0.38%     99.89% |       85939      0.07%     99.96% |       34553      0.03%     99.99% |       13908      0.01%    100.00% |         609      0.00%    100.00% |          12      0.00%    100.00% |           1      0.00%    100.00% |           0      0.00%    100.00% (Unspecified)
system.caches.m_latencyHistSeqr::total      126410192                       (Unspecified)
system.caches.m_hitLatencyHistSeqr::bucket_size          256                       (Unspecified)
system.caches.m_hitLatencyHistSeqr::max_bucket         2559                       (Unspecified)
system.caches.m_hitLatencyHistSeqr::samples    119495269                       (Unspecified)
system.caches.m_hitLatencyHistSeqr::mean     1.006127                       (Unspecified)
system.caches.m_hitLatencyHistSeqr::gmean     1.003809                       (Unspecified)
system.caches.m_hitLatencyHistSeqr::stdev     0.667878                       (Unspecified)
system.caches.m_hitLatencyHistSeqr       |   119495189    100.00%    100.00% |          25      0.00%    100.00% |          24      0.00%    100.00% |          11      0.00%    100.00% |          16      0.00%    100.00% |           2      0.00%    100.00% |           1      0.00%    100.00% |           1      0.00%    100.00% |           0      0.00%    100.00% |           0      0.00%    100.00% (Unspecified)
system.caches.m_hitLatencyHistSeqr::total    119495269                       (Unspecified)
system.caches.m_missLatencyHistSeqr::bucket_size          512                       (Unspecified)
system.caches.m_missLatencyHistSeqr::max_bucket         5119                       (Unspecified)
system.caches.m_missLatencyHistSeqr::samples      6914923                       (Unspecified)
system.caches.m_missLatencyHistSeqr::mean   306.848509                       (Unspecified)
system.caches.m_missLatencyHistSeqr::gmean    66.356040                       (Unspecified)
system.caches.m_missLatencyHistSeqr::stdev   454.450099                       (Unspecified)
system.caches.m_missLatencyHistSeqr      |     4860189     70.29%     70.29% |     1443617     20.88%     91.16% |      476097      6.89%     98.05% |       85937      1.24%     99.29% |       34553      0.50%     99.79% |       13908      0.20%     99.99% |         609      0.01%    100.00% |          12      0.00%    100.00% |           1      0.00%    100.00% |           0      0.00%    100.00% (Unspecified)
system.caches.m_missLatencyHistSeqr::total      6914923                       (Unspecified)
system.caches.delayVCHist.vnet_0::bucket_size            8                       # delay histogram for vnet_0 (Unspecified)
system.caches.delayVCHist.vnet_0::max_bucket           79                       # delay histogram for vnet_0 (Unspecified)
system.caches.delayVCHist.vnet_0::samples     14506248                       # delay histogram for vnet_0 (Unspecified)
system.caches.delayVCHist.vnet_0::mean       1.102334                       # delay histogram for vnet_0 (Unspecified)
system.caches.delayVCHist.vnet_0::stdev      2.912285                       # delay histogram for vnet_0 (Unspecified)
system.caches.delayVCHist.vnet_0         |    12774238     88.06%     88.06% |     1670653     11.52%     99.58% |       57570      0.40%     99.97% |        3333      0.02%    100.00% |         346      0.00%    100.00% |          70      0.00%    100.00% |          23      0.00%    100.00% |           9      0.00%    100.00% |           6      0.00%    100.00% |           0      0.00%    100.00% # delay histogram for vnet_0 (Unspecified)
system.caches.delayVCHist.vnet_0::total      14506248                       # delay histogram for vnet_0 (Unspecified)
system.caches.delayVCHist.vnet_1::bucket_size           16                       # delay histogram for vnet_1 (Unspecified)
system.caches.delayVCHist.vnet_1::max_bucket          159                       # delay histogram for vnet_1 (Unspecified)
system.caches.delayVCHist.vnet_1::samples     16917472                       # delay histogram for vnet_1 (Unspecified)
system.caches.delayVCHist.vnet_1::mean       2.277950                       # delay histogram for vnet_1 (Unspecified)
system.caches.delayVCHist.vnet_1::stdev      7.772810                       # delay histogram for vnet_1 (Unspecified)
system.caches.delayVCHist.vnet_1         |    16048932     94.87%     94.87% |      561688      3.32%     98.19% |      182362      1.08%     99.26% |       80100      0.47%     99.74% |       33207      0.20%     99.93% |        9446      0.06%     99.99% |        1624      0.01%    100.00% |         111      0.00%    100.00% |           2      0.00%    100.00% |           0      0.00%    100.00% # delay histogram for vnet_1 (Unspecified)
system.caches.delayVCHist.vnet_1::total      16917472                       # delay histogram for vnet_1 (Unspecified)
system.caches.delayVCHist.vnet_2::bucket_size            1                       # delay histogram for vnet_2 (Unspecified)
system.caches.delayVCHist.vnet_2::max_bucket            9                       # delay histogram for vnet_2 (Unspecified)
system.caches.delayVCHist.vnet_2::samples      1999426                       # delay histogram for vnet_2 (Unspecified)
system.caches.delayVCHist.vnet_2::mean       0.000608                       # delay histogram for vnet_2 (Unspecified)
system.caches.delayVCHist.vnet_2::stdev      0.034928                       # delay histogram for vnet_2 (Unspecified)
system.caches.delayVCHist.vnet_2         |     1998819     99.97%     99.97% |           0      0.00%     99.97% |         606      0.03%    100.00% |           0      0.00%    100.00% |           1      0.00%    100.00% |           0      0.00%    100.00% |           0      0.00%    100.00% |           0      0.00%    100.00% |           0      0.00%    100.00% |           0      0.00%    100.00% # delay histogram for vnet_2 (Unspecified)
system.caches.delayVCHist.vnet_2::total       1999426                       # delay histogram for vnet_2 (Unspecified)
system.caches.L1Cache_Controller.Load    |     8993890     12.50%     12.50% |     8967100     12.46%     24.95% |     8966615     12.46%     37.41% |     9056792     12.58%     50.00% |     9073391     12.61%     62.60% |     8995370     12.50%     75.10% |     8922864     12.40%     87.50% |     8998189     12.50%    100.00% (Unspecified)
system.caches.L1Cache_Controller.Load::total     71974211                       (Unspecified)
system.caches.L1Cache_Controller.Ifetch  |     5538709     12.41%     12.41% |     5570249     12.48%     24.90% |     5589765     12.53%     37.43% |     5583528     12.51%     49.94% |     5606006     12.56%     62.50% |     5573234     12.49%     75.00% |     5569722     12.48%     87.48% |     5586673     12.52%    100.00% (Unspecified)
system.caches.L1Cache_Controller.Ifetch::total     44617886                       (Unspecified)
system.caches.L1Cache_Controller.Store   |     1231337     12.54%     12.54% |     1224809     12.48%     25.02% |     1227964     12.51%     37.52% |     1229744     12.53%     50.05% |     1229624     12.52%     62.57% |     1225783     12.48%     75.06% |     1221540     12.44%     87.50% |     1227302     12.50%    100.00% (Unspecified)
system.caches.L1Cache_Controller.Store::total      9818103                       (Unspecified)
system.caches.L1Cache_Controller.Inv     |      177061     12.69%     12.69% |      174311     12.49%     25.18% |      174160     12.48%     37.67% |      174243     12.49%     50.16% |      174009     12.47%     62.63% |      173576     12.44%     75.07% |      173820     12.46%     87.53% |      174004     12.47%    100.00% (Unspecified)
system.caches.L1Cache_Controller.Inv::total      1395184                       (Unspecified)
system.caches.L1Cache_Controller.L1_Replacement |      825087     12.63%     12.63% |      814026     12.46%     25.09% |      814769     12.47%     37.57% |      819368     12.54%     50.11% |      815324     12.48%     62.59% |      815556     12.49%     75.08% |      812530     12.44%     87.52% |      815534     12.48%    100.00% (Unspecified)
system.caches.L1Cache_Controller.L1_Replacement::total      6532194                       (Unspecified)
system.caches.L1Cache_Controller.Fwd_GETX |          28     12.96%     12.96% |          27     12.50%     25.46% |          30     13.89%     39.35% |          26     12.04%     51.39% |          29     13.43%     64.81% |          28     12.96%     77.78% |          23     10.65%     88.43% |          25     11.57%    100.00% (Unspecified)
system.caches.L1Cache_Controller.Fwd_GETX::total          216                       (Unspecified)
system.caches.L1Cache_Controller.Fwd_GETS |       75999     12.58%     12.58% |       75234     12.46%     25.04% |       75678     12.53%     37.57% |       75352     12.47%     50.04% |       75137     12.44%     62.48% |       75364     12.48%     74.96% |       75396     12.48%     87.44% |       75866     12.56%    100.00% (Unspecified)
system.caches.L1Cache_Controller.Fwd_GETS::total       604026                       (Unspecified)
system.caches.L1Cache_Controller.Data    |         100    100.00%    100.00% |           0      0.00%    100.00% |           0      0.00%    100.00% |           0      0.00%    100.00% |           0      0.00%    100.00% |           0      0.00%    100.00% |           0      0.00%    100.00% |           0      0.00%    100.00% (Unspecified)
system.caches.L1Cache_Controller.Data::total          100                       (Unspecified)
system.caches.L1Cache_Controller.Data_Exclusive |      440844     12.49%     12.49% |      440045     12.47%     24.96% |      441228     12.50%     37.46% |      442361     12.53%     49.99% |      440527     12.48%     62.47% |      442474     12.54%     75.00% |      440288     12.47%     87.48% |      441999     12.52%    100.00% (Unspecified)
system.caches.L1Cache_Controller.Data_Exclusive::total      3529766                       (Unspecified)
system.caches.L1Cache_Controller.DataS_fromL1 |       75224     12.45%     12.45% |       75657     12.53%     24.98% |       75814     12.55%     37.53% |       76465     12.66%     50.19% |       75308     12.47%     62.66% |       74987     12.41%     75.07% |       75224     12.45%     87.53% |       75347     12.47%    100.00% (Unspecified)
system.caches.L1Cache_Controller.DataS_fromL1::total       604026                       (Unspecified)
system.caches.L1Cache_Controller.Data_all_Acks |      314246     12.59%     12.59% |      311583     12.48%     25.07% |      310909     12.46%     37.53% |      313727     12.57%     50.10% |      312700     12.53%     62.63% |      311292     12.47%     75.10% |      310169     12.43%     87.52% |      311421     12.48%    100.00% (Unspecified)
system.caches.L1Cache_Controller.Data_all_Acks::total      2496047                       (Unspecified)
system.caches.L1Cache_Controller.Ack     |       40068     12.75%     12.75% |       39084     12.44%     25.20% |       39433     12.55%     37.75% |       39434     12.55%     50.30% |       38917     12.39%     62.69% |       38748     12.33%     75.02% |       39129     12.46%     87.48% |       39335     12.52%    100.00% (Unspecified)
system.caches.L1Cache_Controller.Ack::total       314148                       (Unspecified)
system.caches.L1Cache_Controller.Ack_all |       35618     12.49%     12.49% |       35623     12.50%     24.99% |       35737     12.54%     37.53% |       36017     12.63%     50.16% |       35459     12.44%     62.60% |       35474     12.44%     75.04% |       35472     12.44%     87.48% |       35684     12.52%    100.00% (Unspecified)
system.caches.L1Cache_Controller.Ack_all::total       285084                       (Unspecified)
system.caches.L1Cache_Controller.WB_Ack  |      404627     12.80%     12.80% |      392541     12.42%     25.22% |      393700     12.45%     37.67% |      395376     12.51%     50.18% |      394053     12.46%     62.64% |      394706     12.49%     75.12% |      392295     12.41%     87.53% |      394107     12.47%    100.00% (Unspecified)
system.caches.L1Cache_Controller.WB_Ack::total      3161405                       (Unspecified)
system.caches.L1Cache_Controller.NP.Load |      822997     12.51%     12.51% |      821095     12.48%     24.99% |      821662     12.49%     37.49% |      826227     12.56%     50.05% |      821340     12.49%     62.53% |      822493     12.50%     75.04% |      819436     12.46%     87.50% |      822460     12.50%    100.00% (Unspecified)
system.caches.L1Cache_Controller.NP.Load::total      6577710                       (Unspecified)
system.caches.L1Cache_Controller.NP.Ifetch |         593     21.13%     21.13% |         213      7.59%     28.71% |         348     12.40%     41.11% |         358     12.75%     53.87% |         238      8.48%     62.34% |         354     12.61%     74.96% |         354     12.61%     87.57% |         349     12.43%    100.00% (Unspecified)
system.caches.L1Cache_Controller.NP.Ifetch::total         2807                       (Unspecified)
system.caches.L1Cache_Controller.NP.Store |        1688     15.47%     15.47% |        1148     10.52%     26.00% |        1184     10.85%     36.85% |        1212     11.11%     47.96% |        2191     20.09%     68.05% |        1149     10.53%     78.58% |        1171     10.74%     89.32% |        1165     10.68%    100.00% (Unspecified)
system.caches.L1Cache_Controller.NP.Store::total        10908                       (Unspecified)
system.caches.L1Cache_Controller.NP.Inv  |      129058     12.72%     12.72% |      126590     12.48%     25.20% |      126416     12.46%     37.65% |      126930     12.51%     50.16% |      126604     12.48%     62.64% |      125953     12.41%     75.05% |      126413     12.46%     87.51% |      126705     12.49%    100.00% (Unspecified)
system.caches.L1Cache_Controller.NP.Inv::total      1014669                       (Unspecified)
system.caches.L1Cache_Controller.I.Load  |        2720     12.46%     12.46% |        2784     12.75%     25.21% |        2726     12.49%     37.70% |        2725     12.48%     50.18% |        2724     12.48%     62.65% |        2727     12.49%     75.14% |        2681     12.28%     87.42% |        2746     12.58%    100.00% (Unspecified)
system.caches.L1Cache_Controller.I.Load::total        21833                       (Unspecified)
system.caches.L1Cache_Controller.I.Ifetch |        2383     14.48%     14.48% |        2010     12.21%     26.69% |        2006     12.19%     38.88% |        2010     12.21%     51.10% |        2021     12.28%     63.38% |        2006     12.19%     75.57% |        2014     12.24%     87.80% |        2007     12.20%    100.00% (Unspecified)
system.caches.L1Cache_Controller.I.Ifetch::total        16457                       (Unspecified)
system.caches.L1Cache_Controller.I.Store |          32     15.17%     15.17% |          32     15.17%     30.33% |          21      9.95%     40.28% |          20      9.48%     49.76% |          21      9.95%     59.72% |          23     10.90%     70.62% |          23     10.90%     81.52% |          39     18.48%    100.00% (Unspecified)
system.caches.L1Cache_Controller.I.Store::total          211                       (Unspecified)
system.caches.L1Cache_Controller.I.L1_Replacement |       42302     12.53%     12.53% |       42309     12.54%     25.07% |       42402     12.56%     37.63% |       41984     12.44%     50.07% |       42089     12.47%     62.54% |       42301     12.53%     75.08% |       42156     12.49%     87.57% |       41954     12.43%    100.00% (Unspecified)
system.caches.L1Cache_Controller.I.L1_Replacement::total       337497                       (Unspecified)
system.caches.L1Cache_Controller.S.Load  |     5069039     12.52%     12.52% |     5051724     12.48%     24.99% |     5044646     12.46%     37.45% |     5114678     12.63%     50.08% |     5054936     12.48%     62.57% |     5069609     12.52%     75.09% |     5019979     12.40%     87.48% |     5068600     12.52%    100.00% (Unspecified)
system.caches.L1Cache_Controller.S.Load::total     40493211                       (Unspecified)
system.caches.L1Cache_Controller.S.Ifetch |     5535733     12.41%     12.41% |     5568026     12.48%     24.90% |     5587411     12.53%     37.43% |     5581160     12.51%     49.94% |     5603747     12.56%     62.50% |     5570874     12.49%     75.00% |     5567354     12.48%     87.48% |     5584317     12.52%    100.00% (Unspecified)
system.caches.L1Cache_Controller.S.Ifetch::total     44598622                       (Unspecified)
system.caches.L1Cache_Controller.S.Store |       35519     12.46%     12.46% |       35627     12.50%     24.96% |       35741     12.54%     37.50% |       36018     12.64%     50.14% |       35461     12.44%     62.58% |       35476     12.45%     75.03% |       35475     12.45%     87.48% |       35686     12.52%    100.00% (Unspecified)
system.caches.L1Cache_Controller.S.Store::total       285003                       (Unspecified)
system.caches.L1Cache_Controller.S.Inv   |       42049     12.62%     12.62% |       41740     12.53%     25.14% |       41952     12.59%     37.73% |       41519     12.46%     50.19% |       41492     12.45%     62.65% |       41632     12.49%     75.14% |       41321     12.40%     87.54% |       41523     12.46%    100.00% (Unspecified)
system.caches.L1Cache_Controller.S.Inv::total       333228                       (Unspecified)
system.caches.L1Cache_Controller.S.L1_Replacement |      378157     12.47%     12.47% |      379176     12.50%     24.97% |      378667     12.48%     37.45% |      382007     12.59%     50.04% |      379182     12.50%     62.55% |      378549     12.48%     75.03% |      378079     12.46%     87.49% |      379472     12.51%    100.00% (Unspecified)
system.caches.L1Cache_Controller.S.L1_Replacement::total      3033289                       (Unspecified)
system.caches.L1Cache_Controller.E.Load  |     1704599     12.41%     12.41% |     1698513     12.36%     24.77% |     1702733     12.39%     37.16% |     1716066     12.49%     49.65% |     1806908     13.15%     62.80% |     1710333     12.45%     75.25% |     1691463     12.31%     87.56% |     1708728     12.44%    100.00% (Unspecified)
system.caches.L1Cache_Controller.E.Load::total     13739343                       (Unspecified)
system.caches.L1Cache_Controller.E.Store |      206851     12.49%     12.49% |      206825     12.49%     24.97% |      207504     12.53%     37.50% |      207628     12.53%     50.03% |      206418     12.46%     62.49% |      207516     12.53%     75.02% |      206432     12.46%     87.48% |      207405     12.52%    100.00% (Unspecified)
system.caches.L1Cache_Controller.E.Store::total      1656579                       (Unspecified)
system.caches.L1Cache_Controller.E.Inv   |        2814     12.61%     12.61% |        2793     12.51%     25.12% |        2719     12.18%     37.30% |        2720     12.19%     49.49% |        2740     12.28%     61.77% |        2838     12.72%     74.48% |        2899     12.99%     87.47% |        2796     12.53%    100.00% (Unspecified)
system.caches.L1Cache_Controller.E.Inv::total        22319                       (Unspecified)
system.caches.L1Cache_Controller.E.L1_Replacement |      188914     12.44%     12.44% |      189413     12.47%     24.91% |      189844     12.50%     37.41% |      190698     12.55%     49.96% |      190074     12.51%     62.47% |      190673     12.55%     75.03% |      189374     12.47%     87.49% |      189949     12.51%    100.00% (Unspecified)
system.caches.L1Cache_Controller.E.L1_Replacement::total      1518939                       (Unspecified)
system.caches.L1Cache_Controller.E.Fwd_GETS |       39941     12.38%     12.38% |       40119     12.44%     24.82% |       40247     12.48%     37.29% |       40320     12.50%     49.79% |       40280     12.49%     62.28% |       40448     12.54%     74.82% |       40463     12.54%     87.36% |       40772     12.64%    100.00% (Unspecified)
system.caches.L1Cache_Controller.E.Fwd_GETS::total       322590                       (Unspecified)
system.caches.L1Cache_Controller.M.Load  |     1394535     12.52%     12.52% |     1392984     12.50%     25.02% |     1394848     12.52%     37.54% |     1397096     12.54%     50.08% |     1387483     12.45%     62.53% |     1390207     12.48%     75.01% |     1389305     12.47%     87.47% |     1395655     12.53%    100.00% (Unspecified)
system.caches.L1Cache_Controller.M.Load::total     11142113                       (Unspecified)
system.caches.L1Cache_Controller.M.Store |      987247     12.55%     12.55% |      981177     12.47%     25.03% |      983514     12.50%     37.53% |      984866     12.52%     50.05% |      985533     12.53%     62.58% |      981619     12.48%     75.06% |      978439     12.44%     87.50% |      983006     12.50%    100.00% (Unspecified)
system.caches.L1Cache_Controller.M.Store::total      7865401                       (Unspecified)
system.caches.L1Cache_Controller.M.Inv   |        3139     12.59%     12.59% |        3183     12.76%     25.35% |        3067     12.30%     37.65% |        3071     12.32%     49.97% |        3169     12.71%     62.68% |        3149     12.63%     75.30% |        3182     12.76%     88.07% |        2976     11.93%    100.00% (Unspecified)
system.caches.L1Cache_Controller.M.Inv::total        24936                       (Unspecified)
system.caches.L1Cache_Controller.M.L1_Replacement |      215713     13.13%     13.13% |      203128     12.37%     25.50% |      203856     12.41%     37.91% |      204678     12.46%     50.37% |      203979     12.42%     62.79% |      204033     12.42%     75.22% |      202921     12.35%     87.57% |      204158     12.43%    100.00% (Unspecified)
system.caches.L1Cache_Controller.M.L1_Replacement::total      1642466                       (Unspecified)
system.caches.L1Cache_Controller.M.Fwd_GETX |          28     12.96%     12.96% |          27     12.50%     25.46% |          30     13.89%     39.35% |          26     12.04%     51.39% |          29     13.43%     64.81% |          28     12.96%     77.78% |          23     10.65%     88.43% |          25     11.57%    100.00% (Unspecified)
system.caches.L1Cache_Controller.M.Fwd_GETX::total          216                       (Unspecified)
system.caches.L1Cache_Controller.M.Fwd_GETS |       36058     12.81%     12.81% |       35115     12.48%     25.29% |       35431     12.59%     37.88% |       35032     12.45%     50.33% |       34855     12.38%     62.71% |       34916     12.41%     75.12% |       34933     12.41%     87.53% |       35093     12.47%    100.00% (Unspecified)
system.caches.L1Cache_Controller.M.Fwd_GETS::total       281433                       (Unspecified)
system.caches.L1Cache_Controller.IS.Inv  |           0      0.00%      0.00% |           1      7.69%      7.69% |           2     15.38%     23.08% |           2     15.38%     38.46% |           2     15.38%     53.85% |           2     15.38%     69.23% |           2     15.38%     84.62% |           2     15.38%    100.00% (Unspecified)
system.caches.L1Cache_Controller.IS.Inv::total           13                       (Unspecified)
system.caches.L1Cache_Controller.IS.L1_Replacement |           1     50.00%     50.00% |           0      0.00%     50.00% |           0      0.00%     50.00% |           1     50.00%    100.00% |           0      0.00%    100.00% |           0      0.00%    100.00% |           0      0.00%    100.00% |           0      0.00%    100.00% (Unspecified)
system.caches.L1Cache_Controller.IS.L1_Replacement::total            2                       (Unspecified)
system.caches.L1Cache_Controller.IS.Data_Exclusive |      440844     12.49%     12.49% |      440044     12.47%     24.96% |      441228     12.50%     37.46% |      442361     12.53%     49.99% |      440527     12.48%     62.47% |      442474     12.54%     75.00% |      440288     12.47%     87.48% |      441999     12.52%    100.00% (Unspecified)
system.caches.L1Cache_Controller.IS.Data_Exclusive::total      3529765                       (Unspecified)
system.caches.L1Cache_Controller.IS.DataS_fromL1 |       75224     12.45%     12.45% |       75657     12.53%     24.98% |       75814     12.55%     37.53% |       76465     12.66%     50.19% |       75308     12.47%     62.66% |       74987     12.41%     75.07% |       75224     12.45%     87.53% |       75347     12.47%    100.00% (Unspecified)
system.caches.L1Cache_Controller.IS.DataS_fromL1::total       604026                       (Unspecified)
system.caches.L1Cache_Controller.IS.Data_all_Acks |      312625     12.58%     12.58% |      310399     12.49%     25.07% |      309698     12.46%     37.53% |      312492     12.58%     50.11% |      310484     12.49%     62.60% |      310116     12.48%     75.08% |      308970     12.43%     87.52% |      310213     12.48%    100.00% (Unspecified)
system.caches.L1Cache_Controller.IS.Data_all_Acks::total      2484997                       (Unspecified)
system.caches.L1Cache_Controller.IM.L1_Replacement |           0      0.00%      0.00% |           0      0.00%      0.00% |           0      0.00%      0.00% |           0      0.00%      0.00% |           0      0.00%      0.00% |           0      0.00%      0.00% |           0      0.00%      0.00% |           1    100.00%    100.00% (Unspecified)
system.caches.L1Cache_Controller.IM.L1_Replacement::total            1                       (Unspecified)
system.caches.L1Cache_Controller.IM.Data |         100    100.00%    100.00% |           0      0.00%    100.00% |           0      0.00%    100.00% |           0      0.00%    100.00% |           0      0.00%    100.00% |           0      0.00%    100.00% |           0      0.00%    100.00% |           0      0.00%    100.00% (Unspecified)
system.caches.L1Cache_Controller.IM.Data::total          100                       (Unspecified)
system.caches.L1Cache_Controller.IM.Data_all_Acks |        1621     14.69%     14.69% |        1184     10.73%     25.41% |        1209     10.95%     36.37% |        1233     11.17%     47.54% |        2214     20.06%     67.59% |        1174     10.64%     78.23% |        1197     10.84%     89.07% |        1206     10.93%    100.00% (Unspecified)
system.caches.L1Cache_Controller.IM.Data_all_Acks::total        11038                       (Unspecified)
system.caches.L1Cache_Controller.SM.Inv  |           1      5.26%      5.26% |           4     21.05%     26.32% |           4     21.05%     47.37% |           1      5.26%     52.63% |           2     10.53%     63.16% |           2     10.53%     73.68% |           3     15.79%     89.47% |           2     10.53%    100.00% (Unspecified)
system.caches.L1Cache_Controller.SM.Inv::total           19                       (Unspecified)
system.caches.L1Cache_Controller.SM.Ack  |       40068     12.75%     12.75% |       39084     12.44%     25.20% |       39433     12.55%     37.75% |       39434     12.55%     50.30% |       38917     12.39%     62.69% |       38748     12.33%     75.02% |       39129     12.46%     87.48% |       39335     12.52%    100.00% (Unspecified)
system.caches.L1Cache_Controller.SM.Ack::total       314148                       (Unspecified)
system.caches.L1Cache_Controller.SM.Ack_all |       35618     12.49%     12.49% |       35623     12.50%     24.99% |       35737     12.54%     37.53% |       36017     12.63%     50.16% |       35459     12.44%     62.60% |       35474     12.44%     75.04% |       35472     12.44%     87.48% |       35684     12.52%    100.00% (Unspecified)
system.caches.L1Cache_Controller.SM.Ack_all::total       285084                       (Unspecified)
system.caches.L1Cache_Controller.IS_I.Data_Exclusive |           0      0.00%      0.00% |           1    100.00%    100.00% |           0      0.00%    100.00% |           0      0.00%    100.00% |           0      0.00%    100.00% |           0      0.00%    100.00% |           0      0.00%    100.00% |           0      0.00%    100.00% (Unspecified)
system.caches.L1Cache_Controller.IS_I.Data_Exclusive::total            1                       (Unspecified)
system.caches.L1Cache_Controller.IS_I.Data_all_Acks |           0      0.00%      0.00% |           0      0.00%      0.00% |           2     16.67%     16.67% |           2     16.67%     33.33% |           2     16.67%     50.00% |           2     16.67%     66.67% |           2     16.67%     83.33% |           2     16.67%    100.00% (Unspecified)
system.caches.L1Cache_Controller.IS_I.Data_all_Acks::total           12                       (Unspecified)
system.caches.L1Cache_Controller.M_I.Load |           0      0.00%      0.00% |           0      0.00%      0.00% |           0      0.00%      0.00% |           0      0.00%      0.00% |           0      0.00%      0.00% |           1    100.00%    100.00% |           0      0.00%    100.00% |           0      0.00%    100.00% (Unspecified)
system.caches.L1Cache_Controller.M_I.Load::total            1                       (Unspecified)
system.caches.L1Cache_Controller.M_I.Store |           0      0.00%      0.00% |           0      0.00%      0.00% |           0      0.00%      0.00% |           0      0.00%      0.00% |           0      0.00%      0.00% |           0      0.00%      0.00% |           0      0.00%      0.00% |           1    100.00%    100.00% (Unspecified)
system.caches.L1Cache_Controller.M_I.Store::total            1                       (Unspecified)
system.caches.L1Cache_Controller.M_I.Fwd_GETS |           0      0.00%      0.00% |           0      0.00%      0.00% |           0      0.00%      0.00% |           0      0.00%      0.00% |           2     66.67%     66.67% |           0      0.00%     66.67% |           0      0.00%     66.67% |           1     33.33%    100.00% (Unspecified)
system.caches.L1Cache_Controller.M_I.Fwd_GETS::total            3                       (Unspecified)
system.caches.L1Cache_Controller.M_I.WB_Ack |      404627     12.80%     12.80% |      392541     12.42%     25.22% |      393700     12.45%     37.67% |      395376     12.51%     50.18% |      394051     12.46%     62.64% |      394706     12.49%     75.12% |      392295     12.41%     87.53% |      394106     12.47%    100.00% (Unspecified)
system.caches.L1Cache_Controller.M_I.WB_Ack::total      3161402                       (Unspecified)
system.caches.L1Cache_Controller.SINK_WB_ACK.WB_Ack |           0      0.00%      0.00% |           0      0.00%      0.00% |           0      0.00%      0.00% |           0      0.00%      0.00% |           2     66.67%     66.67% |           0      0.00%     66.67% |           0      0.00%     66.67% |           1     33.33%    100.00% (Unspecified)
system.caches.L1Cache_Controller.SINK_WB_ACK.WB_Ack::total            3                       (Unspecified)
system.caches.Directory_Controller.Fetch |        2477      0.10%      0.10% |     2484029     99.90%    100.00% (Unspecified)
system.caches.Directory_Controller.Fetch::total      2486506                       (Unspecified)
system.caches.Directory_Controller.Data  |          42      0.00%      0.00% |     1146268    100.00%    100.00% (Unspecified)
system.caches.Directory_Controller.Data::total      1146310                       (Unspecified)
system.caches.Directory_Controller.Memory_Data |        2477      0.10%      0.10% |     2484023     99.90%    100.00% (Unspecified)
system.caches.Directory_Controller.Memory_Data::total      2486500                       (Unspecified)
system.caches.Directory_Controller.Memory_Ack |          42      0.00%      0.00% |     1146268    100.00%    100.00% (Unspecified)
system.caches.Directory_Controller.Memory_Ack::total      1146310                       (Unspecified)
system.caches.Directory_Controller.CleanReplacement |        2455      0.20%      0.20% |     1206669     99.80%    100.00% (Unspecified)
system.caches.Directory_Controller.CleanReplacement::total      1209124                       (Unspecified)
system.caches.Directory_Controller.I.Fetch |        2477      0.10%      0.10% |     2484029     99.90%    100.00% (Unspecified)
system.caches.Directory_Controller.I.Fetch::total      2486506                       (Unspecified)
system.caches.Directory_Controller.M.Data |          42      0.00%      0.00% |     1146268    100.00%    100.00% (Unspecified)
system.caches.Directory_Controller.M.Data::total      1146310                       (Unspecified)
system.caches.Directory_Controller.M.CleanReplacement |        2455      0.20%      0.20% |     1206669     99.80%    100.00% (Unspecified)
system.caches.Directory_Controller.M.CleanReplacement::total      1209124                       (Unspecified)
system.caches.Directory_Controller.IM.Memory_Data |        2477      0.10%      0.10% |     2484023     99.90%    100.00% (Unspecified)
system.caches.Directory_Controller.IM.Memory_Data::total      2486500                       (Unspecified)
system.caches.Directory_Controller.MI.Memory_Ack |          42      0.00%      0.00% |     1146268    100.00%    100.00% (Unspecified)
system.caches.Directory_Controller.MI.Memory_Ack::total      1146310                       (Unspecified)
system.caches.L2Cache_Controller.L1_GET_INSTR |        2212     11.43%     11.43% |        3381     17.47%     28.91% |        2188     11.31%     40.22% |        1781      9.21%     49.42% |        2461     12.72%     62.14% |        2478     12.81%     74.95% |        2195     11.34%     86.29% |        2652     13.71%    100.00% (Unspecified)
system.caches.L2Cache_Controller.L1_GET_INSTR::total        19348                       (Unspecified)
system.caches.L2Cache_Controller.L1_GETS |      825148     12.50%     12.50% |      830393     12.58%     25.08% |      827591     12.54%     37.62% |      826612     12.52%     50.15% |      818426     12.40%     62.55% |      823226     12.47%     75.02% |      826476     12.52%     87.55% |      821853     12.45%    100.00% (Unspecified)
system.caches.L2Cache_Controller.L1_GETS::total      6599725                       (Unspecified)
system.caches.L2Cache_Controller.L1_GETX |        1644     14.74%     14.74% |        1241     11.13%     25.87% |         610      5.47%     31.35% |        1107      9.93%     41.27% |        1373     12.31%     53.59% |        1975     17.71%     71.30% |        1490     13.36%     84.66% |        1710     15.34%    100.00% (Unspecified)
system.caches.L2Cache_Controller.L1_GETX::total        11150                       (Unspecified)
system.caches.L2Cache_Controller.L1_UPGRADE |       35853     12.58%     12.58% |       34473     12.09%     24.67% |       35414     12.42%     37.10% |       36043     12.65%     49.74% |       35659     12.51%     62.26% |       36151     12.68%     74.94% |       35467     12.44%     87.38% |       35964     12.62%    100.00% (Unspecified)
system.caches.L2Cache_Controller.L1_UPGRADE::total       285024                       (Unspecified)
system.caches.L2Cache_Controller.L1_PUTX |      395377     12.51%     12.51% |      396505     12.54%     25.05% |      395099     12.50%     37.55% |      395818     12.52%     50.07% |      392931     12.43%     62.50% |      396235     12.53%     75.03% |      394143     12.47%     87.50% |      395300     12.50%    100.00% (Unspecified)
system.caches.L2Cache_Controller.L1_PUTX::total      3161408                       (Unspecified)
system.caches.L2Cache_Controller.L2_Replacement |      141020     12.48%     12.48% |      141615     12.53%     25.02% |      141457     12.52%     37.54% |      141360     12.51%     50.05% |      140690     12.45%     62.50% |      141832     12.55%     75.05% |      140894     12.47%     87.52% |      140987     12.48%    100.00% (Unspecified)
system.caches.L2Cache_Controller.L2_Replacement::total      1129855                       (Unspecified)
system.caches.L2Cache_Controller.L2_Replacement_clean |      153312     12.51%     12.51% |      153240     12.50%     25.01% |      153608     12.53%     37.55% |      153470     12.52%     50.07% |      152555     12.45%     62.52% |      153188     12.50%     75.02% |      152950     12.48%     87.50% |      153256     12.50%    100.00% (Unspecified)
system.caches.L2Cache_Controller.L2_Replacement_clean::total      1225579                       (Unspecified)
system.caches.L2Cache_Controller.Mem_Data |      310715     12.50%     12.50% |      311236     12.52%     25.01% |      311448     12.53%     37.54% |      311214     12.52%     50.05% |      309629     12.45%     62.51% |      311403     12.52%     75.03% |      310228     12.48%     87.51% |      310627     12.49%    100.00% (Unspecified)
system.caches.L2Cache_Controller.Mem_Data::total      2486500                       (Unspecified)
system.caches.L2Cache_Controller.Mem_Ack |      294332     12.50%     12.50% |      294855     12.52%     25.01% |      295065     12.53%     37.54% |      294830     12.52%     50.06% |      293245     12.45%     62.51% |      295020     12.53%     75.03% |      293844     12.48%     87.51% |      294243     12.49%    100.00% (Unspecified)
system.caches.L2Cache_Controller.Mem_Ack::total      2355434                       (Unspecified)
system.caches.L2Cache_Controller.WB_Data |       38664     12.62%     12.62% |       36912     12.05%     24.67% |       37893     12.37%     37.04% |       38768     12.65%     49.69% |       38358     12.52%     62.21% |       38865     12.69%     74.90% |       38092     12.43%     87.33% |       38819     12.67%    100.00% (Unspecified)
system.caches.L2Cache_Controller.WB_Data::total       306371                       (Unspecified)
system.caches.L2Cache_Controller.WB_Data_clean |       40758     12.63%     12.63% |       40057     12.42%     25.05% |       40432     12.53%     37.59% |       40179     12.46%     50.04% |       40453     12.54%     62.58% |       40115     12.44%     75.02% |       40386     12.52%     87.53% |       40211     12.47%    100.00% (Unspecified)
system.caches.L2Cache_Controller.WB_Data_clean::total       322591                       (Unspecified)
system.caches.L2Cache_Controller.Ack     |       96525     12.73%     12.73% |       93927     12.38%     25.11% |       94387     12.44%     37.55% |       94381     12.44%     49.99% |       94917     12.51%     62.51% |       94038     12.40%     74.91% |       96096     12.67%     87.57% |       94254     12.43%    100.00% (Unspecified)
system.caches.L2Cache_Controller.Ack::total       758525                       (Unspecified)
system.caches.L2Cache_Controller.Ack_all |       37698     12.67%     12.67% |       36856     12.39%     25.06% |       37170     12.50%     37.56% |       37038     12.45%     50.01% |       37307     12.54%     62.55% |       36903     12.41%     74.95% |       37260     12.53%     87.48% |       37243     12.52%    100.00% (Unspecified)
system.caches.L2Cache_Controller.Ack_all::total       297475                       (Unspecified)
system.caches.L2Cache_Controller.Unblock |       76253     12.62%     12.62% |       74005     12.25%     24.88% |       75361     12.48%     37.35% |       75828     12.55%     49.91% |       75670     12.53%     62.43% |       75819     12.55%     74.99% |       75369     12.48%     87.46% |       75721     12.54%    100.00% (Unspecified)
system.caches.L2Cache_Controller.Unblock::total       604026                       (Unspecified)
system.caches.L2Cache_Controller.Exclusive_Unblock |      479319     12.53%     12.53% |      477788     12.49%     25.02% |      477781     12.49%     37.50% |      479187     12.52%     50.03% |      476136     12.45%     62.47% |      479529     12.53%     75.01% |      477043     12.47%     87.48% |      479105     12.52%    100.00% (Unspecified)
system.caches.L2Cache_Controller.Exclusive_Unblock::total      3825888                       (Unspecified)
system.caches.L2Cache_Controller.NP.L1_GET_INSTR |         326     12.72%     12.72% |         346     13.51%     26.23% |         314     12.26%     38.49% |         264     10.30%     48.79% |         351     13.70%     62.49% |         342     13.35%     75.84% |         309     12.06%     87.90% |         310     12.10%    100.00% (Unspecified)
system.caches.L2Cache_Controller.NP.L1_GET_INSTR::total         2562                       (Unspecified)
system.caches.L2Cache_Controller.NP.L1_GETS |      309792     12.49%     12.49% |      310335     12.52%     25.01% |      310651     12.53%     37.54% |      310410     12.52%     50.06% |      308722     12.45%     62.51% |      310453     12.52%     75.03% |      309351     12.48%     87.51% |      309666     12.49%    100.00% (Unspecified)
system.caches.L2Cache_Controller.NP.L1_GETS::total      2479380                       (Unspecified)
system.caches.L2Cache_Controller.NP.L1_GETX |         598     13.10%     13.10% |         558     12.23%     25.33% |         484     10.60%     35.93% |         540     11.83%     47.77% |         556     12.18%     59.95% |         609     13.34%     73.29% |         568     12.45%     85.74% |         651     14.26%    100.00% (Unspecified)
system.caches.L2Cache_Controller.NP.L1_GETX::total         4564                       (Unspecified)
system.caches.L2Cache_Controller.SS.L1_GET_INSTR |        1558     10.71%     10.71% |        2641     18.16%     28.88% |        1579     10.86%     39.74% |        1222      8.40%     48.14% |        1853     12.74%     60.88% |        1860     12.79%     73.67% |        1663     11.44%     85.11% |        2165     14.89%    100.00% (Unspecified)
system.caches.L2Cache_Controller.SS.L1_GET_INSTR::total        14541                       (Unspecified)
system.caches.L2Cache_Controller.SS.L1_GETS |      306973     12.45%     12.45% |      314192     12.75%     25.20% |      310409     12.59%     37.79% |      308704     12.52%     50.31% |      303627     12.32%     62.63% |      305887     12.41%     75.04% |      310779     12.61%     87.64% |      304622     12.36%    100.00% (Unspecified)
system.caches.L2Cache_Controller.SS.L1_GETS::total      2465193                       (Unspecified)
system.caches.L2Cache_Controller.SS.L1_GETX |          63     63.00%     63.00% |           0      0.00%     63.00% |           0      0.00%     63.00% |           0      0.00%     63.00% |           0      0.00%     63.00% |           0      0.00%     63.00% |          37     37.00%    100.00% |           0      0.00%    100.00% (Unspecified)
system.caches.L2Cache_Controller.SS.L1_GETX::total          100                       (Unspecified)
system.caches.L2Cache_Controller.SS.L1_UPGRADE |       35851     12.58%     12.58% |       34470     12.10%     24.68% |       35409     12.42%     37.10% |       36041     12.65%     49.75% |       35657     12.51%     62.26% |       36146     12.68%     74.94% |       35446     12.44%     87.38% |       35964     12.62%    100.00% (Unspecified)
system.caches.L2Cache_Controller.SS.L1_UPGRADE::total       284984                       (Unspecified)
system.caches.L2Cache_Controller.SS.L1_PUTX |           0      0.00%      0.00% |           0      0.00%      0.00% |           0      0.00%      0.00% |           1     33.33%     33.33% |           0      0.00%     33.33% |           0      0.00%     33.33% |           0      0.00%     33.33% |           2     66.67%    100.00% (Unspecified)
system.caches.L2Cache_Controller.SS.L1_PUTX::total            3                       (Unspecified)
system.caches.L2Cache_Controller.SS.L2_Replacement |        2363     12.73%     12.73% |        2263     12.20%     24.93% |        2314     12.47%     37.40% |        2355     12.69%     50.09% |        2382     12.84%     62.93% |        2304     12.42%     75.34% |        2241     12.08%     87.42% |        2334     12.58%    100.00% (Unspecified)
system.caches.L2Cache_Controller.SS.L2_Replacement::total        18556                       (Unspecified)
system.caches.L2Cache_Controller.SS.L2_Replacement_clean |       32448     12.65%     12.65% |       31834     12.41%     25.05% |       32134     12.52%     37.57% |       31919     12.44%     50.01% |       32113     12.51%     62.53% |       31856     12.41%     74.94% |       32264     12.57%     87.52% |       32032     12.48%    100.00% (Unspecified)
system.caches.L2Cache_Controller.SS.L2_Replacement_clean::total       256600                       (Unspecified)
system.caches.L2Cache_Controller.M.L1_GET_INSTR |           0      0.00%      0.00% |           2     20.00%     20.00% |           2     20.00%     40.00% |           0      0.00%     40.00% |           1     10.00%     50.00% |           1     10.00%     60.00% |           2     20.00%     80.00% |           2     20.00%    100.00% (Unspecified)
system.caches.L2Cache_Controller.M.L1_GET_INSTR::total           10                       (Unspecified)
system.caches.L2Cache_Controller.M.L1_GETS |      132067     12.57%     12.57% |      131767     12.54%     25.11% |      131135     12.48%     37.60% |      131643     12.53%     50.13% |      130395     12.41%     62.54% |      130981     12.47%     75.01% |      130778     12.45%     87.46% |      131791     12.54%    100.00% (Unspecified)
system.caches.L2Cache_Controller.M.L1_GETS::total      1050557                       (Unspecified)
system.caches.L2Cache_Controller.M.L1_GETX |         979     15.64%     15.64% |         680     10.87%     26.51% |         120      1.92%     28.43% |         565      9.03%     37.46% |         815     13.02%     50.48% |        1359     21.72%     72.20% |         885     14.14%     86.34% |         855     13.66%    100.00% (Unspecified)
system.caches.L2Cache_Controller.M.L1_GETX::total         6258                       (Unspecified)
system.caches.L2Cache_Controller.M.L2_Replacement |      137475     12.47%     12.47% |      138353     12.55%     25.02% |      138161     12.53%     37.55% |      137900     12.51%     50.06% |      137150     12.44%     62.50% |      138382     12.55%     75.05% |      137518     12.47%     87.53% |      137518     12.47%    100.00% (Unspecified)
system.caches.L2Cache_Controller.M.L2_Replacement::total      1102457                       (Unspecified)
system.caches.L2Cache_Controller.M.L2_Replacement_clean |      115990     12.46%     12.46% |      116682     12.54%     25.00% |      116770     12.55%     37.55% |      116773     12.55%     50.10% |      115647     12.43%     62.53% |      116574     12.53%     75.05% |      115957     12.46%     87.52% |      116173     12.48%    100.00% (Unspecified)
system.caches.L2Cache_Controller.M.L2_Replacement_clean::total       930566                       (Unspecified)
system.caches.L2Cache_Controller.MT.L1_GETS |       76253     12.62%     12.62% |       74005     12.25%     24.88% |       75361     12.48%     37.35% |       75828     12.55%     49.91% |       75670     12.53%     62.43% |       75819     12.55%     74.99% |       75369     12.48%     87.46% |       75721     12.54%    100.00% (Unspecified)
system.caches.L2Cache_Controller.MT.L1_GETS::total       604026                       (Unspecified)
system.caches.L2Cache_Controller.MT.L1_GETX |           3      1.39%      1.39% |           3      1.39%      2.78% |           6      2.78%      5.56% |           2      0.93%      6.48% |           2      0.93%      7.41% |           6      2.78%     10.19% |           0      0.00%     10.19% |         194     89.81%    100.00% (Unspecified)
system.caches.L2Cache_Controller.MT.L1_GETX::total          216                       (Unspecified)
system.caches.L2Cache_Controller.MT.L1_PUTX |      395377     12.51%     12.51% |      396505     12.54%     25.05% |      395099     12.50%     37.55% |      395816     12.52%     50.07% |      392931     12.43%     62.50% |      396235     12.53%     75.03% |      394143     12.47%     87.50% |      395296     12.50%    100.00% (Unspecified)
system.caches.L2Cache_Controller.MT.L1_PUTX::total      3161402                       (Unspecified)
system.caches.L2Cache_Controller.MT.L2_Replacement |        1182     13.37%     13.37% |         999     11.30%     24.67% |         982     11.11%     35.77% |        1105     12.50%     48.27% |        1158     13.10%     61.37% |        1146     12.96%     74.33% |        1135     12.84%     87.16% |        1135     12.84%    100.00% (Unspecified)
system.caches.L2Cache_Controller.MT.L2_Replacement::total         8842                       (Unspecified)
system.caches.L2Cache_Controller.MT.L2_Replacement_clean |        4874     12.69%     12.69% |        4724     12.30%     24.99% |        4704     12.25%     37.23% |        4778     12.44%     49.67% |        4795     12.48%     62.15% |        4758     12.39%     74.54% |        4729     12.31%     86.85% |        5051     13.15%    100.00% (Unspecified)
system.caches.L2Cache_Controller.MT.L2_Replacement_clean::total        38413                       (Unspecified)
system.caches.L2Cache_Controller.M_I.L1_GET_INSTR |          23     27.38%     27.38% |          29     34.52%     61.90% |          19     22.62%     84.52% |          13     15.48%    100.00% |           0      0.00%    100.00% |           0      0.00%    100.00% |           0      0.00%    100.00% |           0      0.00%    100.00% (Unspecified)
system.caches.L2Cache_Controller.M_I.L1_GET_INSTR::total           84                       (Unspecified)
system.caches.L2Cache_Controller.M_I.L1_GETS |           8     17.39%     17.39% |           3      6.52%     23.91% |           0      0.00%     23.91% |           2      4.35%     28.26% |           0      0.00%     28.26% |           6     13.04%     41.30% |           3      6.52%     47.83% |          24     52.17%    100.00% (Unspecified)
system.caches.L2Cache_Controller.M_I.L1_GETS::total           46                       (Unspecified)
system.caches.L2Cache_Controller.M_I.L1_GETX |           0      0.00%      0.00% |           0      0.00%      0.00% |           0      0.00%      0.00% |           0      0.00%      0.00% |           0      0.00%      0.00% |           1      9.09%      9.09% |           0      0.00%      9.09% |          10     90.91%    100.00% (Unspecified)
system.caches.L2Cache_Controller.M_I.L1_GETX::total           11                       (Unspecified)
system.caches.L2Cache_Controller.M_I.Mem_Ack |      294332     12.50%     12.50% |      294855     12.52%     25.01% |      295065     12.53%     37.54% |      294830     12.52%     50.06% |      293245     12.45%     62.51% |      295020     12.53%     75.03% |      293844     12.48%     87.51% |      294243     12.49%    100.00% (Unspecified)
system.caches.L2Cache_Controller.M_I.Mem_Ack::total      2355434                       (Unspecified)
system.caches.L2Cache_Controller.MT_I.WB_Data |        1143     13.48%     13.48% |         956     11.27%     24.75% |         953     11.24%     35.99% |        1058     12.47%     48.46% |        1107     13.05%     61.51% |        1096     12.92%     74.44% |        1078     12.71%     87.15% |        1090     12.85%    100.00% (Unspecified)
system.caches.L2Cache_Controller.MT_I.WB_Data::total         8481                       (Unspecified)
system.caches.L2Cache_Controller.MT_I.Ack_all |          39     10.80%     10.80% |          43     11.91%     22.71% |          29      8.03%     30.75% |          47     13.02%     43.77% |          51     14.13%     57.89% |          50     13.85%     71.75% |          57     15.79%     87.53% |          45     12.47%    100.00% (Unspecified)
system.caches.L2Cache_Controller.MT_I.Ack_all::total          361                       (Unspecified)
system.caches.L2Cache_Controller.MCT_I.WB_Data |        2026     12.31%     12.31% |        2008     12.20%     24.52% |        2011     12.22%     36.74% |        2061     12.53%     49.26% |        2034     12.36%     61.62% |        2065     12.55%     74.17% |        2031     12.34%     86.51% |        2219     13.49%    100.00% (Unspecified)
system.caches.L2Cache_Controller.MCT_I.WB_Data::total        16455                       (Unspecified)
system.caches.L2Cache_Controller.MCT_I.Ack_all |        2848     12.97%     12.97% |        2716     12.37%     25.34% |        2693     12.26%     37.60% |        2717     12.37%     49.98% |        2761     12.57%     62.55% |        2693     12.26%     74.82% |        2698     12.29%     87.10% |        2832     12.90%    100.00% (Unspecified)
system.caches.L2Cache_Controller.MCT_I.Ack_all::total        21958                       (Unspecified)
system.caches.L2Cache_Controller.I_I.L1_GETS |           0      0.00%      0.00% |           0      0.00%      0.00% |           0      0.00%      0.00% |           1    100.00%    100.00% |           0      0.00%    100.00% |           0      0.00%    100.00% |           0      0.00%    100.00% |           0      0.00%    100.00% (Unspecified)
system.caches.L2Cache_Controller.I_I.L1_GETS::total            1                       (Unspecified)
system.caches.L2Cache_Controller.I_I.Ack |       89079     12.70%     12.70% |       86867     12.39%     25.09% |       87248     12.44%     37.53% |       87214     12.44%     49.97% |       87550     12.48%     62.45% |       87110     12.42%     74.88% |       89144     12.71%     87.59% |       87039     12.41%    100.00% (Unspecified)
system.caches.L2Cache_Controller.I_I.Ack::total       701251                       (Unspecified)
system.caches.L2Cache_Controller.I_I.Ack_all |       32448     12.65%     12.65% |       31834     12.41%     25.05% |       32134     12.52%     37.57% |       31919     12.44%     50.01% |       32113     12.51%     62.53% |       31856     12.41%     74.94% |       32264     12.57%     87.52% |       32032     12.48%    100.00% (Unspecified)
system.caches.L2Cache_Controller.I_I.Ack_all::total       256600                       (Unspecified)
system.caches.L2Cache_Controller.S_I.Ack |        7446     13.00%     13.00% |        7060     12.33%     25.33% |        7139     12.46%     37.79% |        7167     12.51%     50.31% |        7367     12.86%     63.17% |        6928     12.10%     75.26% |        6952     12.14%     87.40% |        7215     12.60%    100.00% (Unspecified)
system.caches.L2Cache_Controller.S_I.Ack::total        57274                       (Unspecified)
system.caches.L2Cache_Controller.S_I.Ack_all |        2363     12.73%     12.73% |        2263     12.20%     24.93% |        2314     12.47%     37.40% |        2355     12.69%     50.09% |        2382     12.84%     62.93% |        2304     12.42%     75.34% |        2241     12.08%     87.42% |        2334     12.58%    100.00% (Unspecified)
system.caches.L2Cache_Controller.S_I.Ack_all::total        18556                       (Unspecified)
system.caches.L2Cache_Controller.ISS.L1_GETS |          33     20.00%     20.00% |          22     13.33%     33.33% |          23     13.94%     47.27% |          14      8.48%     55.76% |          11      6.67%     62.42% |          24     14.55%     76.97% |          22     13.33%     90.30% |          16      9.70%    100.00% (Unspecified)
system.caches.L2Cache_Controller.ISS.L1_GETS::total          165                       (Unspecified)
system.caches.L2Cache_Controller.ISS.Mem_Data |      309758     12.49%     12.49% |      310310     12.52%     25.01% |      310627     12.53%     37.54% |      310396     12.52%     50.06% |      308711     12.45%     62.51% |      310428     12.52%     75.03% |      309329     12.48%     87.51% |      309650     12.49%    100.00% (Unspecified)
system.caches.L2Cache_Controller.ISS.Mem_Data::total      2479209                       (Unspecified)
system.caches.L2Cache_Controller.IS.L1_GET_INSTR |         305     14.18%     14.18% |         363     16.88%     31.06% |         274     12.74%     43.79% |         282     13.11%     56.90% |         256     11.90%     68.81% |         275     12.78%     81.59% |         221     10.27%     91.86% |         175      8.14%    100.00% (Unspecified)
system.caches.L2Cache_Controller.IS.L1_GET_INSTR::total         2151                       (Unspecified)
system.caches.L2Cache_Controller.IS.L1_GETS |          11      4.95%      4.95% |          64     28.83%     33.78% |          11      4.95%     38.74% |          10      4.50%     43.24% |           0      0.00%     43.24% |          52     23.42%     66.67% |          62     27.93%     94.59% |          12      5.41%    100.00% (Unspecified)
system.caches.L2Cache_Controller.IS.L1_GETS::total          222                       (Unspecified)
system.caches.L2Cache_Controller.IS.Mem_Data |         359     13.16%     13.16% |         368     13.49%     26.66% |         337     12.36%     39.02% |         278     10.19%     49.21% |         362     13.27%     62.49% |         366     13.42%     75.91% |         331     12.14%     88.05% |         326     11.95%    100.00% (Unspecified)
system.caches.L2Cache_Controller.IS.Mem_Data::total         2727                       (Unspecified)
system.caches.L2Cache_Controller.IM.Mem_Data |         598     13.10%     13.10% |         558     12.23%     25.33% |         484     10.60%     35.93% |         540     11.83%     47.77% |         556     12.18%     59.95% |         609     13.34%     73.29% |         568     12.45%     85.74% |         651     14.26%    100.00% (Unspecified)
system.caches.L2Cache_Controller.IM.Mem_Data::total         4564                       (Unspecified)
system.caches.L2Cache_Controller.SS_MB.L1_GETS |           0      0.00%      0.00% |           0      0.00%      0.00% |           1      1.23%      1.23% |           0      0.00%      1.23% |           0      0.00%      1.23% |           0      0.00%      1.23% |          80     98.77%    100.00% |           0      0.00%    100.00% (Unspecified)
system.caches.L2Cache_Controller.SS_MB.L1_GETS::total           81                       (Unspecified)
system.caches.L2Cache_Controller.SS_MB.L1_GETX |           1    100.00%    100.00% |           0      0.00%    100.00% |           0      0.00%    100.00% |           0      0.00%    100.00% |           0      0.00%    100.00% |           0      0.00%    100.00% |           0      0.00%    100.00% |           0      0.00%    100.00% (Unspecified)
system.caches.L2Cache_Controller.SS_MB.L1_GETX::total            1                       (Unspecified)
system.caches.L2Cache_Controller.SS_MB.L1_UPGRADE |           2     10.53%     10.53% |           3     15.79%     26.32% |           5     26.32%     52.63% |           2     10.53%     63.16% |           2     10.53%     73.68% |           5     26.32%    100.00% |           0      0.00%    100.00% |           0      0.00%    100.00% (Unspecified)
system.caches.L2Cache_Controller.SS_MB.L1_UPGRADE::total           19                       (Unspecified)
system.caches.L2Cache_Controller.SS_MB.Exclusive_Unblock |       35914     12.60%     12.60% |       34470     12.09%     24.69% |       35409     12.42%     37.11% |       36041     12.64%     49.75% |       35657     12.51%     62.26% |       36146     12.68%     74.94% |       35483     12.45%     87.38% |       35964     12.62%    100.00% (Unspecified)
system.caches.L2Cache_Controller.SS_MB.Exclusive_Unblock::total       285084                       (Unspecified)
system.caches.L2Cache_Controller.MT_MB.L1_GETS |           0      0.00%      0.00% |           0      0.00%      0.00% |           0      0.00%      0.00% |           0      0.00%      0.00% |           0      0.00%      0.00% |           0      0.00%      0.00% |           0      0.00%      0.00% |           1    100.00%    100.00% (Unspecified)
system.caches.L2Cache_Controller.MT_MB.L1_GETS::total            1                       (Unspecified)
system.caches.L2Cache_Controller.MT_MB.Exclusive_Unblock |      443405     12.52%     12.52% |      443318     12.52%     25.04% |      442372     12.49%     37.54% |      443146     12.52%     50.05% |      440479     12.44%     62.49% |      443383     12.52%     75.01% |      441560     12.47%     87.48% |      443141     12.52%    100.00% (Unspecified)
system.caches.L2Cache_Controller.MT_MB.Exclusive_Unblock::total      3540804                       (Unspecified)
system.caches.L2Cache_Controller.MT_IIB.L1_GETS |          11     21.57%     21.57% |           5      9.80%     31.37% |           0      0.00%     31.37% |           0      0.00%     31.37% |           0      0.00%     31.37% |           3      5.88%     37.25% |          32     62.75%    100.00% |           0      0.00%    100.00% (Unspecified)
system.caches.L2Cache_Controller.MT_IIB.L1_GETS::total           51                       (Unspecified)
system.caches.L2Cache_Controller.MT_IIB.L1_PUTX |           0      0.00%      0.00% |           0      0.00%      0.00% |           0      0.00%      0.00% |           1     33.33%     33.33% |           0      0.00%     33.33% |           0      0.00%     33.33% |           0      0.00%     33.33% |           2     66.67%    100.00% (Unspecified)
system.caches.L2Cache_Controller.MT_IIB.L1_PUTX::total            3                       (Unspecified)
system.caches.L2Cache_Controller.MT_IIB.WB_Data |       35493     12.61%     12.61% |       33948     12.06%     24.67% |       34924     12.41%     37.08% |       35648     12.67%     49.75% |       35216     12.51%     62.27% |       35703     12.69%     74.95% |       34983     12.43%     87.38% |       35508     12.62%    100.00% (Unspecified)
system.caches.L2Cache_Controller.MT_IIB.WB_Data::total       281423                       (Unspecified)
system.caches.L2Cache_Controller.MT_IIB.WB_Data_clean |       40758     12.64%     12.64% |       40055     12.42%     25.05% |       40430     12.53%     37.59% |       40173     12.45%     50.04% |       40452     12.54%     62.58% |       40114     12.44%     75.01% |       40386     12.52%     87.53% |       40211     12.47%    100.00% (Unspecified)
system.caches.L2Cache_Controller.MT_IIB.WB_Data_clean::total       322579                       (Unspecified)
system.caches.L2Cache_Controller.MT_IIB.Unblock |           2      8.33%      8.33% |           2      8.33%     16.67% |           7     29.17%     45.83% |           7     29.17%     75.00% |           2      8.33%     83.33% |           2      8.33%     91.67% |           0      0.00%     91.67% |           2      8.33%    100.00% (Unspecified)
system.caches.L2Cache_Controller.MT_IIB.Unblock::total           24                       (Unspecified)
system.caches.L2Cache_Controller.MT_IB.WB_Data |           2     16.67%     16.67% |           0      0.00%     16.67% |           5     41.67%     58.33% |           1      8.33%     66.67% |           1      8.33%     75.00% |           1      8.33%     83.33% |           0      0.00%     83.33% |           2     16.67%    100.00% (Unspecified)
system.caches.L2Cache_Controller.MT_IB.WB_Data::total           12                       (Unspecified)
system.caches.L2Cache_Controller.MT_IB.WB_Data_clean |           0      0.00%      0.00% |           2     16.67%     16.67% |           2     16.67%     33.33% |           6     50.00%     83.33% |           1      8.33%     91.67% |           1      8.33%    100.00% |           0      0.00%    100.00% |           0      0.00%    100.00% (Unspecified)
system.caches.L2Cache_Controller.MT_IB.WB_Data_clean::total           12                       (Unspecified)
system.caches.L2Cache_Controller.MT_SB.L1_GETS |           0      0.00%      0.00% |           0      0.00%      0.00% |           0      0.00%      0.00% |           0      0.00%      0.00% |           1     50.00%     50.00% |           1     50.00%    100.00% |           0      0.00%    100.00% |           0      0.00%    100.00% (Unspecified)
system.caches.L2Cache_Controller.MT_SB.L1_GETS::total            2                       (Unspecified)
system.caches.L2Cache_Controller.MT_SB.L1_UPGRADE |           0      0.00%      0.00% |           0      0.00%      0.00% |           0      0.00%      0.00% |           0      0.00%      0.00% |           0      0.00%      0.00% |           0      0.00%      0.00% |          21    100.00%    100.00% |           0      0.00%    100.00% (Unspecified)
system.caches.L2Cache_Controller.MT_SB.L1_UPGRADE::total           21                       (Unspecified)
system.caches.L2Cache_Controller.MT_SB.Unblock |       76251     12.62%     12.62% |       74003     12.25%     24.88% |       75354     12.48%     37.35% |       75821     12.55%     49.91% |       75668     12.53%     62.43% |       75817     12.55%     74.99% |       75369     12.48%     87.46% |       75719     12.54%    100.00% (Unspecified)
system.caches.L2Cache_Controller.MT_SB.Unblock::total       604002                       (Unspecified)
system.caches.RequestType.LD.latency_hist_seqr::bucket_size          512                       (Unspecified)
system.caches.RequestType.LD.latency_hist_seqr::max_bucket         5119                       (Unspecified)
system.caches.RequestType.LD.latency_hist_seqr::samples     71974204                       (Unspecified)
system.caches.RequestType.LD.latency_hist_seqr::mean    30.247595                       (Unspecified)
system.caches.RequestType.LD.latency_hist_seqr::gmean     1.486258                       (Unspecified)
system.caches.RequestType.LD.latency_hist_seqr::stdev   167.052792                       (Unspecified)
system.caches.RequestType.LD.latency_hist_seqr |    69923655     97.15%     97.15% |     1440804      2.00%     99.15% |      475033      0.66%     99.81% |       85718      0.12%     99.93% |       34492      0.05%     99.98% |       13882      0.02%    100.00% |         607      0.00%    100.00% |          12      0.00%    100.00% |           1      0.00%    100.00% |           0      0.00%    100.00% (Unspecified)
system.caches.RequestType.LD.latency_hist_seqr::total     71974204                       (Unspecified)
system.caches.RequestType.LD.hit_latency_hist_seqr::bucket_size            1                       (Unspecified)
system.caches.RequestType.LD.hit_latency_hist_seqr::max_bucket            9                       (Unspecified)
system.caches.RequestType.LD.hit_latency_hist_seqr::samples     65374667                       (Unspecified)
system.caches.RequestType.LD.hit_latency_hist_seqr::mean     1.010135                       (Unspecified)
system.caches.RequestType.LD.hit_latency_hist_seqr::gmean     1.006900                       (Unspecified)
system.caches.RequestType.LD.hit_latency_hist_seqr::stdev     0.105396                       (Unspecified)
system.caches.RequestType.LD.hit_latency_hist_seqr |           0      0.00%      0.00% |    64744917     99.04%     99.04% |      599291      0.92%     99.95% |       28101      0.04%    100.00% |        2357      0.00%    100.00% |           1      0.00%    100.00% |           0      0.00%    100.00% |           0      0.00%    100.00% |           0      0.00%    100.00% |           0      0.00%    100.00% (Unspecified)
system.caches.RequestType.LD.hit_latency_hist_seqr::total     65374667                       (Unspecified)
system.caches.RequestType.LD.miss_latency_hist_seqr::bucket_size          512                       (Unspecified)
system.caches.RequestType.LD.miss_latency_hist_seqr::max_bucket         5119                       (Unspecified)
system.caches.RequestType.LD.miss_latency_hist_seqr::samples      6599537                       (Unspecified)
system.caches.RequestType.LD.miss_latency_hist_seqr::mean   319.872341                       (Unspecified)
system.caches.RequestType.LD.miss_latency_hist_seqr::gmean    70.350584                       (Unspecified)
system.caches.RequestType.LD.miss_latency_hist_seqr::stdev   460.432223                       (Unspecified)
system.caches.RequestType.LD.miss_latency_hist_seqr |     4548988     68.93%     68.93% |     1440804     21.83%     90.76% |      475033      7.20%     97.96% |       85718      1.30%     99.26% |       34492      0.52%     99.78% |       13882      0.21%     99.99% |         607      0.01%    100.00% |          12      0.00%    100.00% |           1      0.00%    100.00% |           0      0.00%    100.00% (Unspecified)
system.caches.RequestType.LD.miss_latency_hist_seqr::total      6599537                       (Unspecified)
system.caches.RequestType.ST.latency_hist_seqr::bucket_size          512                       (Unspecified)
system.caches.RequestType.ST.latency_hist_seqr::max_bucket         5119                       (Unspecified)
system.caches.RequestType.ST.latency_hist_seqr::samples      2080474                       (Unspecified)
system.caches.RequestType.ST.latency_hist_seqr::mean     2.692217                       (Unspecified)
system.caches.RequestType.ST.latency_hist_seqr::gmean     1.018656                       (Unspecified)
system.caches.RequestType.ST.latency_hist_seqr::stdev    41.392771                       (Unspecified)
system.caches.RequestType.ST.latency_hist_seqr |     2077057     99.84%     99.84% |        2331      0.11%     99.95% |         845      0.04%     99.99% |         161      0.01%    100.00% |          55      0.00%    100.00% |          23      0.00%    100.00% |           2      0.00%    100.00% |           0      0.00%    100.00% |           0      0.00%    100.00% |           0      0.00%    100.00% (Unspecified)
system.caches.RequestType.ST.latency_hist_seqr::total      2080474                       (Unspecified)
system.caches.RequestType.ST.hit_latency_hist_seqr::bucket_size          128                       (Unspecified)
system.caches.RequestType.ST.hit_latency_hist_seqr::max_bucket         1279                       (Unspecified)
system.caches.RequestType.ST.hit_latency_hist_seqr::samples      2072930                       (Unspecified)
system.caches.RequestType.ST.hit_latency_hist_seqr::mean     1.004176                       (Unspecified)
system.caches.RequestType.ST.hit_latency_hist_seqr::gmean     1.000839                       (Unspecified)
system.caches.RequestType.ST.hit_latency_hist_seqr::stdev     1.434239                       (Unspecified)
system.caches.RequestType.ST.hit_latency_hist_seqr |     2072920    100.00%    100.00% |           1      0.00%    100.00% |           1      0.00%    100.00% |           2      0.00%    100.00% |           1      0.00%    100.00% |           2      0.00%    100.00% |           2      0.00%    100.00% |           0      0.00%    100.00% |           1      0.00%    100.00% |           0      0.00%    100.00% (Unspecified)
system.caches.RequestType.ST.hit_latency_hist_seqr::total      2072930                       (Unspecified)
system.caches.RequestType.ST.miss_latency_hist_seqr::bucket_size          512                       (Unspecified)
system.caches.RequestType.ST.miss_latency_hist_seqr::max_bucket         5119                       (Unspecified)
system.caches.RequestType.ST.miss_latency_hist_seqr::samples         7544                       (Unspecified)
system.caches.RequestType.ST.miss_latency_hist_seqr::mean   466.529825                       (Unspecified)
system.caches.RequestType.ST.miss_latency_hist_seqr::gmean   129.950100                       (Unspecified)
system.caches.RequestType.ST.miss_latency_hist_seqr::stdev   506.012525                       (Unspecified)
system.caches.RequestType.ST.miss_latency_hist_seqr |        4133     54.79%     54.79% |        2326     30.83%     85.62% |         844     11.19%     96.81% |         161      2.13%     98.94% |          55      0.73%     99.67% |          23      0.30%     99.97% |           2      0.03%    100.00% |           0      0.00%    100.00% |           0      0.00%    100.00% |           0      0.00%    100.00% (Unspecified)
system.caches.RequestType.ST.miss_latency_hist_seqr::total         7544                       (Unspecified)
system.caches.RequestType.IFETCH.latency_hist_seqr::bucket_size          512                       (Unspecified)
system.caches.RequestType.IFETCH.latency_hist_seqr::max_bucket         5119                       (Unspecified)
system.caches.RequestType.IFETCH.latency_hist_seqr::samples     44617886                       (Unspecified)
system.caches.RequestType.IFETCH.latency_hist_seqr::mean     1.040609                       (Unspecified)
system.caches.RequestType.IFETCH.latency_hist_seqr::gmean     1.001458                       (Unspecified)
system.caches.RequestType.IFETCH.latency_hist_seqr::stdev     4.495245                       (Unspecified)
system.caches.RequestType.IFETCH.latency_hist_seqr |    44617374    100.00%    100.00% |         320      0.00%    100.00% |         142      0.00%    100.00% |          43      0.00%    100.00% |           5      0.00%    100.00% |           2      0.00%    100.00% |           0      0.00%    100.00% |           0      0.00%    100.00% |           0      0.00%    100.00% |           0      0.00%    100.00% (Unspecified)
system.caches.RequestType.IFETCH.latency_hist_seqr::total     44617886                       (Unspecified)
system.caches.RequestType.IFETCH.hit_latency_hist_seqr::bucket_size            1                       (Unspecified)
system.caches.RequestType.IFETCH.hit_latency_hist_seqr::max_bucket            9                       (Unspecified)
system.caches.RequestType.IFETCH.hit_latency_hist_seqr::samples     44598622                       (Unspecified)
system.caches.RequestType.IFETCH.hit_latency_hist_seqr::mean     1.000011                       (Unspecified)
system.caches.RequestType.IFETCH.hit_latency_hist_seqr::gmean     1.000008                       (Unspecified)
system.caches.RequestType.IFETCH.hit_latency_hist_seqr::stdev     0.003401                       (Unspecified)
system.caches.RequestType.IFETCH.hit_latency_hist_seqr |           0      0.00%      0.00% |    44598130    100.00%    100.00% |         484      0.00%    100.00% |           8      0.00%    100.00% |           0      0.00%    100.00% |           0      0.00%    100.00% |           0      0.00%    100.00% |           0      0.00%    100.00% |           0      0.00%    100.00% |           0      0.00%    100.00% (Unspecified)
system.caches.RequestType.IFETCH.hit_latency_hist_seqr::total     44598622                       (Unspecified)
system.caches.RequestType.IFETCH.miss_latency_hist_seqr::bucket_size          512                       (Unspecified)
system.caches.RequestType.IFETCH.miss_latency_hist_seqr::max_bucket         5119                       (Unspecified)
system.caches.RequestType.IFETCH.miss_latency_hist_seqr::samples        19264                       (Unspecified)
system.caches.RequestType.IFETCH.miss_latency_hist_seqr::mean    95.029329                       (Unspecified)
system.caches.RequestType.IFETCH.miss_latency_hist_seqr::gmean    28.705378                       (Unspecified)
system.caches.RequestType.IFETCH.miss_latency_hist_seqr::stdev   194.850611                       (Unspecified)
system.caches.RequestType.IFETCH.miss_latency_hist_seqr |       18752     97.34%     97.34% |         320      1.66%     99.00% |         142      0.74%     99.74% |          43      0.22%     99.96% |           5      0.03%     99.99% |           2      0.01%    100.00% |           0      0.00%    100.00% |           0      0.00%    100.00% |           0      0.00%    100.00% |           0      0.00%    100.00% (Unspecified)
[...]
system.o3Cpu7.iew.squashCycles                 586578                       # Number of cycles IEW is squashing (Cycle)
system.o3Cpu7.iew.blockCycles               153507566                       # Number of cycles IEW is blocking (Cycle)
system.o3Cpu7.iew.unblockCycles               1273293                       # Number of cycles IEW is unblocking (Cycle)
system.o3Cpu7.iew.dispatchedInsts           146911185                       # Number of instructions dispatched to IQ (Count)
system.o3Cpu7.iew.dispSquashedInsts              3391                       # Number of squashed instructions skipped by dispatch (Count)
system.o3Cpu7.iew.dispLoadInsts              29388270                       # Number of dispatched load instructions (Count)
system.o3Cpu7.iew.dispStoreInsts              2976251                       # Number of dispatched store instructions (Count)
system.o3Cpu7.iew.dispNonSpecInsts            2071403                       # Number of dispatched non-speculative instructions (Count)
system.o3Cpu7.iew.iqFullEvents                 717966                       # Number of times the IQ has become full, causing a stall (Count)
system.o3Cpu7.iew.lsqFullEvents                228549                       # Number of times the LSQ has become full, causing a stall (Count)
system.o3Cpu7.iew.memOrderViolationEvents       239575                       # Number of memory order violations (Count)
system.o3Cpu7.iew.predictedTakenIncorrect       148140                       # Number of branches that were predicted taken incorrectly (Count)
system.o3Cpu7.iew.predictedNotTakenIncorrect       246014                       # Number of branches that were predicted not taken incorrectly (Count)
system.o3Cpu7.iew.branchMispredicts            394154                       # Number of branch mispredicts detected at execute (Count)
system.o3Cpu7.iew.instsToCommit              84464617                       # Cumulative count of insts sent to commit (Count)
system.o3Cpu7.iew.writebackCount             84363650                       # Cumulative count of insts written-back (Count)
system.o3Cpu7.iew.producerInst               69921044                       # Number of instructions producing a value (Count)
system.o3Cpu7.iew.consumerInst              102476027                       # Number of instructions consuming a value (Count)
system.o3Cpu7.iew.wbRate                     0.404012                       # Insts written-back per cycle ((Count/Cycle))
system.o3Cpu7.iew.wbFanout                   0.682316                       # Average fanout of values written-back ((Count/Count))
system.o3Cpu7.interrupts.clk_domain.clock         3200                       # Clock period in ticks (Tick)
system.o3Cpu7.lsq0.forwLoads                     5436                       # Number of loads that had data forwarded from stores (Count)
system.o3Cpu7.lsq0.squashedLoads             23725230                       # Number of loads squashed (Count)
system.o3Cpu7.lsq0.ignoredResponses                31                       # Number of memory responses ignored because the instruction is squashed (Count)
system.o3Cpu7.lsq0.memOrderViolation           239575                       # Number of memory ordering violations (Count)
system.o3Cpu7.lsq0.squashedStores             2234035                       # Number of stores squashed (Count)
system.o3Cpu7.lsq0.rescheduledLoads                34                       # Number of loads that were rescheduled (Count)
system.o3Cpu7.lsq0.blockedByCache               27745                       # Number of times an access to memory failed due to the cache being blocked (Count)
system.o3Cpu7.lsq0.loadToUse::samples         5662998                       # Distribution of cycle latency between the first time a load is issued and its completion (Unspecified)
system.o3Cpu7.lsq0.loadToUse::mean          37.106411                       # Distribution of cycle latency between the first time a load is issued and its completion (Unspecified)
system.o3Cpu7.lsq0.loadToUse::stdev        178.882259                       # Distribution of cycle latency between the first time a load is issued and its completion (Unspecified)
system.o3Cpu7.lsq0.loadToUse::0-9             5115228     90.33%     90.33% # Distribution of cycle latency between the first time a load is issued and its completion (Unspecified)
system.o3Cpu7.lsq0.loadToUse::10-19            165193      2.92%     93.24% # Distribution of cycle latency between the first time a load is issued and its completion (Unspecified)
system.o3Cpu7.lsq0.loadToUse::20-29            125372      2.21%     95.46% # Distribution of cycle latency between the first time a load is issued and its completion (Unspecified)
system.o3Cpu7.lsq0.loadToUse::30-39             11451      0.20%     95.66% # Distribution of cycle latency between the first time a load is issued and its completion (Unspecified)
system.o3Cpu7.lsq0.loadToUse::40-49              3600      0.06%     95.72% # Distribution of cycle latency between the first time a load is issued and its completion (Unspecified)
system.o3Cpu7.lsq0.loadToUse::50-59              1356      0.02%     95.75% # Distribution of cycle latency between the first time a load is issued and its completion (Unspecified)
system.o3Cpu7.lsq0.loadToUse::60-69               657      0.01%     95.76% # Distribution of cycle latency between the first time a load is issued and its completion (Unspecified)
system.o3Cpu7.lsq0.loadToUse::70-79               417      0.01%     95.77% # Distribution of cycle latency between the first time a load is issued and its completion (Unspecified)
system.o3Cpu7.lsq0.loadToUse::80-89               338      0.01%     95.77% # Distribution of cycle latency between the first time a load is issued and its completion (Unspecified)
system.o3Cpu7.lsq0.loadToUse::90-99               337      0.01%     95.78% # Distribution of cycle latency between the first time a load is issued and its completion (Unspecified)
system.o3Cpu7.lsq0.loadToUse::100-109             287      0.01%     95.78% # Distribution of cycle latency between the first time a load is issued and its completion (Unspecified)
system.o3Cpu7.lsq0.loadToUse::110-119             280      0.00%     95.79% # Distribution of cycle latency between the first time a load is issued and its completion (Unspecified)
system.o3Cpu7.lsq0.loadToUse::120-129             306      0.01%     95.79% # Distribution of cycle latency between the first time a load is issued and its completion (Unspecified)
system.o3Cpu7.lsq0.loadToUse::130-139             246      0.00%     95.80% # Distribution of cycle latency between the first time a load is issued and its completion (Unspecified)
system.o3Cpu7.lsq0.loadToUse::140-149             349      0.01%     95.80% # Distribution of cycle latency between the first time a load is issued and its completion (Unspecified)
system.o3Cpu7.lsq0.loadToUse::150-159             283      0.00%     95.81% # Distribution of cycle latency between the first time a load is issued and its completion (Unspecified)
system.o3Cpu7.lsq0.loadToUse::160-169             327      0.01%     95.82% # Distribution of cycle latency between the first time a load is issued and its completion (Unspecified)
system.o3Cpu7.lsq0.loadToUse::170-179             310      0.01%     95.82% # Distribution of cycle latency between the first time a load is issued and its completion (Unspecified)
system.o3Cpu7.lsq0.loadToUse::180-189             388      0.01%     95.83% # Distribution of cycle latency between the first time a load is issued and its completion (Unspecified)
system.o3Cpu7.lsq0.loadToUse::190-199             464      0.01%     95.84% # Distribution of cycle latency between the first time a load is issued and its completion (Unspecified)
system.o3Cpu7.lsq0.loadToUse::200-209             469      0.01%     95.84% # Distribution of cycle latency between the first time a load is issued and its completion (Unspecified)
system.o3Cpu7.lsq0.loadToUse::210-219             391      0.01%     95.85% # Distribution of cycle latency between the first time a load is issued and its completion (Unspecified)
system.o3Cpu7.lsq0.loadToUse::220-229             367      0.01%     95.86% # Distribution of cycle latency between the first time a load is issued and its completion (Unspecified)
system.o3Cpu7.lsq0.loadToUse::230-239             334      0.01%     95.86% # Distribution of cycle latency between the first time a load is issued and its completion (Unspecified)
system.o3Cpu7.lsq0.loadToUse::240-249             338      0.01%     95.87% # Distribution of cycle latency between the first time a load is issued and its completion (Unspecified)
system.o3Cpu7.lsq0.loadToUse::250-259             293      0.01%     95.87% # Distribution of cycle latency between the first time a load is issued and its completion (Unspecified)
system.o3Cpu7.lsq0.loadToUse::260-269             306      0.01%     95.88% # Distribution of cycle latency between the first time a load is issued and its completion (Unspecified)
system.o3Cpu7.lsq0.loadToUse::270-279             297      0.01%     95.89% # Distribution of cycle latency between the first time a load is issued and its completion (Unspecified)
system.o3Cpu7.lsq0.loadToUse::280-289             290      0.01%     95.89% # Distribution of cycle latency between the first time a load is issued and its completion (Unspecified)
system.o3Cpu7.lsq0.loadToUse::290-299             374      0.01%     95.90% # Distribution of cycle latency between the first time a load is issued and its completion (Unspecified)
system.o3Cpu7.lsq0.loadToUse::overflows        232350      4.10%    100.00% # Distribution of cycle latency between the first time a load is issued and its completion (Unspecified)
system.o3Cpu7.lsq0.loadToUse::min_value             2                       # Distribution of cycle latency between the first time a load is issued and its completion (Unspecified)
system.o3Cpu7.lsq0.loadToUse::max_value          3681                       # Distribution of cycle latency between the first time a load is issued and its completion (Unspecified)
system.o3Cpu7.lsq0.loadToUse::total           5662998                       # Distribution of cycle latency between the first time a load is issued and its completion (Unspecified)
system.o3Cpu7.mmu.dtb.rdAccesses             10655187                       # TLB accesses on read requests (Count)
system.o3Cpu7.mmu.dtb.wrAccesses               746062                       # TLB accesses on write requests (Count)
system.o3Cpu7.mmu.dtb.rdMisses                 150437                       # TLB misses on read requests (Count)
system.o3Cpu7.mmu.dtb.wrMisses                   1930                       # TLB misses on write requests (Count)
system.o3Cpu7.mmu.dtb.walker.power_state.pwrStateResidencyTicks::UNDEFINED  42776965200                       # Cumulative time (in ticks) in various power states (Tick)
system.o3Cpu7.mmu.itb.rdAccesses                    0                       # TLB accesses on read requests (Count)
system.o3Cpu7.mmu.itb.wrAccesses              5587009                       # TLB accesses on write requests (Count)
system.o3Cpu7.mmu.itb.rdMisses                      0                       # TLB misses on read requests (Count)
system.o3Cpu7.mmu.itb.wrMisses                    162                       # TLB misses on write requests (Count)
system.o3Cpu7.mmu.itb.walker.power_state.pwrStateResidencyTicks::UNDEFINED  42776965200                       # Cumulative time (in ticks) in various power states (Tick)
system.o3Cpu7.power_state.pwrStateResidencyTicks::OFF  42776965200                       # Cumulative time (in ticks) in various power states (Tick)
system.o3Cpu7.rename.squashCycles              586578                       # Number of cycles rename is squashing (Cycle)
system.o3Cpu7.rename.idleCycles               4754616                       # Number of cycles rename is idle (Cycle)
system.o3Cpu7.rename.blockCycles            181355029                       # Number of cycles rename is blocking (Cycle)
system.o3Cpu7.rename.serializeStallCycles       172728                       # count of cycles rename stalled for serializing inst (Cycle)
system.o3Cpu7.rename.runCycles                9700855                       # Number of cycles rename is running (Cycle)
system.o3Cpu7.rename.unblockCycles           11893031                       # Number of cycles rename is unblocking (Cycle)
system.o3Cpu7.rename.renamedInsts           150501904                       # Number of instructions processed by rename (Count)
system.o3Cpu7.rename.ROBFullEvents             148081                       # Number of times rename has blocked due to ROB full (Count)
system.o3Cpu7.rename.IQFullEvents            10112252                       # Number of times rename has blocked due to IQ full (Count)
system.o3Cpu7.rename.LQFullEvents             1538339                       # Number of times rename has blocked due to LQ full (Count)
system.o3Cpu7.rename.SQFullEvents                3856                       # Number of times rename has blocked due to SQ full (Count)
system.o3Cpu7.rename.renamedOperands        273667038                       # Number of destination operands rename has renamed (Count)
system.o3Cpu7.rename.lookups                529213366                       # Number of register rename lookups that rename has made (Count)
system.o3Cpu7.rename.intLookups             183887682                       # Number of integer rename lookups (Count)
system.o3Cpu7.rename.fpLookups                4481700                       # Number of floating rename lookups (Count)
system.o3Cpu7.rename.committedMaps           50561400                       # Number of HB maps that are committed (Count)
system.o3Cpu7.rename.undoneMaps             223105240                       # Number of HB maps that are undone due to squashing (Count)
system.o3Cpu7.rename.serializing                 1913                       # count of serializing insts renamed (Count)
system.o3Cpu7.rename.tempSerializing             2010                       # count of temporary serializing insts renamed (Count)
system.o3Cpu7.rename.skidInsts               33470853                       # count of insts added to the skid buffer (Count)
system.o3Cpu7.rob.reads                     346668145                       # The number of ROB reads (Count)
system.o3Cpu7.rob.writes                    302199410                       # The number of ROB writes (Count)
system.o3Cpu7.thread_0.numInsts              16239832                       # Number of Instructions committed (Count)
system.o3Cpu7.thread_0.numOps                28054299                       # Number of Ops committed (Count)
system.o3Cpu7.thread_0.numMemRefs                   0                       # Number of Memory References (Count)
system.pc.bad_addr.power_state.pwrStateResidencyTicks::UNDEFINED  42776965200                       # Cumulative time (in ticks) in various power states (Tick)
system.pc.com_1.power_state.pwrStateResidencyTicks::UNDEFINED  42776965200                       # Cumulative time (in ticks) in various power states (Tick)
system.pc.default_bus.power_state.pwrStateResidencyTicks::UNDEFINED  42776965200                       # Cumulative time (in ticks) in various power states (Tick)
system.pc.empty_isa.power_state.pwrStateResidencyTicks::UNDEFINED  42776965200                       # Cumulative time (in ticks) in various power states (Tick)
system.pc.fake_com_2.power_state.pwrStateResidencyTicks::UNDEFINED  42776965200                       # Cumulative time (in ticks) in various power states (Tick)
system.pc.fake_com_3.power_state.pwrStateResidencyTicks::UNDEFINED  42776965200                       # Cumulative time (in ticks) in various power states (Tick)
system.pc.fake_com_4.power_state.pwrStateResidencyTicks::UNDEFINED  42776965200                       # Cumulative time (in ticks) in various power states (Tick)
system.pc.fake_floppy.power_state.pwrStateResidencyTicks::UNDEFINED  42776965200                       # Cumulative time (in ticks) in various power states (Tick)
system.pc.pci_host.power_state.pwrStateResidencyTicks::UNDEFINED  42776965200                       # Cumulative time (in ticks) in various power states (Tick)
system.pc.south_bridge.cmos.power_state.pwrStateResidencyTicks::UNDEFINED  42776965200                       # Cumulative time (in ticks) in various power states (Tick)
system.pc.south_bridge.dma1.power_state.pwrStateResidencyTicks::UNDEFINED  42776965200                       # Cumulative time (in ticks) in various power states (Tick)
system.pc.south_bridge.ide.disks0.IdeDisk.dmaReadFullPages            0                       # Number of full page size DMA reads (not PRD). (Count)
system.pc.south_bridge.ide.disks0.IdeDisk.dmaReadBytes            0                       # Number of bytes transfered via DMA reads (not PRD). (Byte)
system.pc.south_bridge.ide.disks0.IdeDisk.dmaReadTxs            0                       # Number of DMA read transactions (not PRD). (Count)
system.pc.south_bridge.ide.disks0.IdeDisk.dmaWriteFullPages            0                       # Number of full page size DMA writes. (Count)
system.pc.south_bridge.ide.disks0.IdeDisk.dmaWriteBytes            0                       # Number of bytes transfered via DMA writes. (Byte)
system.pc.south_bridge.ide.disks0.IdeDisk.dmaWriteTxs            0                       # Number of DMA write transactions. (Count)
system.pc.south_bridge.ide.disks1.IdeDisk.dmaReadFullPages            0                       # Number of full page size DMA reads (not PRD). (Count)
system.pc.south_bridge.ide.disks1.IdeDisk.dmaReadBytes            0                       # Number of bytes transfered via DMA reads (not PRD). (Byte)
system.pc.south_bridge.ide.disks1.IdeDisk.dmaReadTxs            0                       # Number of DMA read transactions (not PRD). (Count)
system.pc.south_bridge.ide.disks1.IdeDisk.dmaWriteFullPages            0                       # Number of full page size DMA writes. (Count)
system.pc.south_bridge.ide.disks1.IdeDisk.dmaWriteBytes            0                       # Number of bytes transfered via DMA writes. (Byte)
system.pc.south_bridge.ide.disks1.IdeDisk.dmaWriteTxs            0                       # Number of DMA write transactions. (Count)
system.pc.south_bridge.ide.power_state.pwrStateResidencyTicks::UNDEFINED  42776965200                       # Cumulative time (in ticks) in various power states (Tick)
system.pc.south_bridge.io_apic.power_state.pwrStateResidencyTicks::UNDEFINED  42776965200                       # Cumulative time (in ticks) in various power states (Tick)
system.pc.south_bridge.keyboard.power_state.pwrStateResidencyTicks::UNDEFINED  42776965200                       # Cumulative time (in ticks) in various power states (Tick)
system.pc.south_bridge.pic1.power_state.pwrStateResidencyTicks::UNDEFINED  42776965200                       # Cumulative time (in ticks) in various power states (Tick)
system.pc.south_bridge.pic2.power_state.pwrStateResidencyTicks::UNDEFINED  42776965200                       # Cumulative time (in ticks) in various power states (Tick)
system.pc.south_bridge.pit.power_state.pwrStateResidencyTicks::UNDEFINED  42776965200                       # Cumulative time (in ticks) in various power states (Tick)
system.pc.south_bridge.speaker.power_state.pwrStateResidencyTicks::UNDEFINED  42776965200                       # Cumulative time (in ticks) in various power states (Tick)
system.workload.inst.arm                            0                       # number of arm instructions executed (Count)
system.workload.inst.quiesce                        0                       # number of quiesce instructions executed (Count)

---------- End Simulation Statistics   ----------
