
---------- Begin Simulation Statistics ----------
simSeconds                                   0.058313                       # Number of seconds simulated (Second)
simTicks                                  58312785440                       # Number of ticks simulated (Tick)
finalTick                                169605961805200                       # Number of ticks from beginning of simulation (restored from checkpoints and never reset) (Tick)
simFreq                                  1000000000000                       # The number of ticks per simulated second ((Tick/Second))
hostSeconds                                   7153.79                       # Real time elapsed on the host (Second)
hostTickRate                                  8151318                       # The number of ticks simulated per host second (ticks/s) ((Tick/Second))
hostMemory                                   19562688                       # Number of bytes of host memory used (Byte)
simInsts                                    239344333                       # Number of instructions simulated (Count)
simOps                                      425802756                       # Number of ops (including micro ops) simulated (Count)
hostInstRate                                    33457                       # Simulator instruction rate (inst/s) ((Count/Second))
hostOpRate                                      59521                       # Simulator op (including micro ops) rate (op/s) ((Count/Second))
system.caches.delayHistogram::bucket_size            8                       # delay histogram for all message (Unspecified)
system.caches.delayHistogram::max_bucket           79                       # delay histogram for all message (Unspecified)
system.caches.delayHistogram::samples         7539319                       # delay histogram for all message (Unspecified)
system.caches.delayHistogram::mean           1.661368                       # delay histogram for all message (Unspecified)
system.caches.delayHistogram::stdev          3.382676                       # delay histogram for all message (Unspecified)
system.caches.delayHistogram             |     6220175     82.50%     82.50% |     1300062     17.24%     99.75% |       15023      0.20%     99.95% |        3395      0.05%     99.99% |         606      0.01%    100.00% |          54      0.00%    100.00% |           3      0.00%    100.00% |           1      0.00%    100.00% |           0      0.00%    100.00% |           0      0.00%    100.00% # delay histogram for all message (Unspecified)
system.caches.delayHistogram::total           7539319                       # delay histogram for all message (Unspecified)
system.caches.m_outstandReqHistSeqr::bucket_size            2                       (Unspecified)
system.caches.m_outstandReqHistSeqr::max_bucket           19                       (Unspecified)
system.caches.m_outstandReqHistSeqr::samples    208529652                       (Unspecified)
system.caches.m_outstandReqHistSeqr::mean     1.878306                       (Unspecified)
system.caches.m_outstandReqHistSeqr::gmean     1.480764                       (Unspecified)
system.caches.m_outstandReqHistSeqr::stdev     1.972834                       (Unspecified)
system.caches.m_outstandReqHistSeqr      |   129330110     62.02%     62.02% |    61830888     29.65%     91.67% |    10047665      4.82%     96.49% |     1819669      0.87%     97.36% |     1392281      0.67%     98.03% |     1171547      0.56%     98.59% |     1246063      0.60%     99.19% |      939790      0.45%     99.64% |      751639      0.36%    100.00% |           0      0.00%    100.00% (Unspecified)
system.caches.m_outstandReqHistSeqr::total    208529652                       (Unspecified)
system.caches.m_latencyHistSeqr::bucket_size          512                       (Unspecified)
system.caches.m_latencyHistSeqr::max_bucket         5119                       (Unspecified)
system.caches.m_latencyHistSeqr::samples    212121041                       (Unspecified)
system.caches.m_latencyHistSeqr::mean        1.843966                       (Unspecified)
system.caches.m_latencyHistSeqr::gmean       1.035848                       (Unspecified)
system.caches.m_latencyHistSeqr::stdev      24.695055                       (Unspecified)
system.caches.m_latencyHistSeqr          |   211970027     99.93%     99.93% |      128886      0.06%     99.99% |       16903      0.01%    100.00% |        4153      0.00%    100.00% |         666      0.00%    100.00% |         372      0.00%    100.00% |          33      0.00%    100.00% |           1      0.00%    100.00% |           0      0.00%    100.00% |           0      0.00%    100.00% (Unspecified)
system.caches.m_latencyHistSeqr::total      212121041                       (Unspecified)
system.caches.m_hitLatencyHistSeqr::bucket_size          256                       (Unspecified)
system.caches.m_hitLatencyHistSeqr::max_bucket         2559                       (Unspecified)
system.caches.m_hitLatencyHistSeqr::samples    210677554                       (Unspecified)
system.caches.m_hitLatencyHistSeqr::mean     1.017526                       (Unspecified)
system.caches.m_hitLatencyHistSeqr::gmean     1.012215                       (Unspecified)
system.caches.m_hitLatencyHistSeqr::stdev     0.160661                       (Unspecified)
system.caches.m_hitLatencyHistSeqr       |   210677553    100.00%    100.00% |           0      0.00%    100.00% |           0      0.00%    100.00% |           0      0.00%    100.00% |           0      0.00%    100.00% |           1      0.00%    100.00% |           0      0.00%    100.00% |           0      0.00%    100.00% |           0      0.00%    100.00% |           0      0.00%    100.00% (Unspecified)
system.caches.m_hitLatencyHistSeqr::total    210677554                       (Unspecified)
system.caches.m_missLatencyHistSeqr::bucket_size          512                       (Unspecified)
system.caches.m_missLatencyHistSeqr::max_bucket         5119                       (Unspecified)
system.caches.m_missLatencyHistSeqr::samples      1443487                       (Unspecified)
system.caches.m_missLatencyHistSeqr::mean   122.463293                       (Unspecified)
system.caches.m_missLatencyHistSeqr::gmean    30.073941                       (Unspecified)
system.caches.m_missLatencyHistSeqr::stdev   273.796777                       (Unspecified)
system.caches.m_missLatencyHistSeqr      |     1292474     89.54%     89.54% |      128886      8.93%     98.47% |       16902      1.17%     99.64% |        4153      0.29%     99.93% |         666      0.05%     99.97% |         372      0.03%    100.00% |          33      0.00%    100.00% |           1      0.00%    100.00% |           0      0.00%    100.00% |           0      0.00%    100.00% (Unspecified)
system.caches.m_missLatencyHistSeqr::total      1443487                       (Unspecified)
system.caches.delayVCHist.vnet_0::bucket_size            4                       # delay histogram for vnet_0 (Unspecified)
system.caches.delayVCHist.vnet_0::max_bucket           39                       # delay histogram for vnet_0 (Unspecified)
system.caches.delayVCHist.vnet_0::samples      4280071                       # delay histogram for vnet_0 (Unspecified)
system.caches.delayVCHist.vnet_0::mean       2.190176                       # delay histogram for vnet_0 (Unspecified)
system.caches.delayVCHist.vnet_0::stdev      3.572850                       # delay histogram for vnet_0 (Unspecified)
system.caches.delayVCHist.vnet_0         |     3106844     72.59%     72.59% |       22908      0.54%     73.12% |     1146247     26.78%     99.90% |        2593      0.06%     99.97% |        1458      0.03%    100.00% |          21      0.00%    100.00% |           0      0.00%    100.00% |           0      0.00%    100.00% |           0      0.00%    100.00% |           0      0.00%    100.00% # delay histogram for vnet_0 (Unspecified)
system.caches.delayVCHist.vnet_0::total       4280071                       # delay histogram for vnet_0 (Unspecified)
system.caches.delayVCHist.vnet_1::bucket_size            8                       # delay histogram for vnet_1 (Unspecified)
system.caches.delayVCHist.vnet_1::max_bucket           79                       # delay histogram for vnet_1 (Unspecified)
system.caches.delayVCHist.vnet_1::samples      3222378                       # delay histogram for vnet_1 (Unspecified)
system.caches.delayVCHist.vnet_1::mean       0.977986                       # delay histogram for vnet_1 (Unspecified)
system.caches.delayVCHist.vnet_1::stdev      2.991069                       # delay histogram for vnet_1 (Unspecified)
system.caches.delayVCHist.vnet_1         |     3053553     94.76%     94.76% |      151222      4.69%     99.45% |       13544      0.42%     99.87% |        3395      0.11%     99.98% |         606      0.02%    100.00% |          54      0.00%    100.00% |           3      0.00%    100.00% |           1      0.00%    100.00% |           0      0.00%    100.00% |           0      0.00%    100.00% # delay histogram for vnet_1 (Unspecified)
system.caches.delayVCHist.vnet_1::total       3222378                       # delay histogram for vnet_1 (Unspecified)
system.caches.delayVCHist.vnet_2::bucket_size            1                       # delay histogram for vnet_2 (Unspecified)
system.caches.delayVCHist.vnet_2::max_bucket            9                       # delay histogram for vnet_2 (Unspecified)
system.caches.delayVCHist.vnet_2::samples        36870                       # delay histogram for vnet_2 (Unspecified)
system.caches.delayVCHist.vnet_2::mean       0.000922                       # delay histogram for vnet_2 (Unspecified)
system.caches.delayVCHist.vnet_2::stdev      0.042936                       # delay histogram for vnet_2 (Unspecified)
system.caches.delayVCHist.vnet_2         |       36853     99.95%     99.95% |           0      0.00%     99.95% |          17      0.05%    100.00% |           0      0.00%    100.00% |           0      0.00%    100.00% |           0      0.00%    100.00% |           0      0.00%    100.00% |           0      0.00%    100.00% |           0      0.00%    100.00% |           0      0.00%    100.00% # delay histogram for vnet_2 (Unspecified)
system.caches.delayVCHist.vnet_2::total         36870                       # delay histogram for vnet_2 (Unspecified)
system.caches.L1Cache_Controller.Load    |       37666      0.04%      0.04% |       26036      0.02%      0.06% |       26415      0.03%      0.09% |   104145817     99.81%     99.90% |       26146      0.03%     99.92% |       25604      0.02%     99.95% |       26463      0.03%     99.97% |       26235      0.03%    100.00% (Unspecified)
system.caches.L1Cache_Controller.Load::total    104340382                       (Unspecified)
system.caches.L1Cache_Controller.Ifetch  |       31760      0.04%      0.04% |       25231      0.03%      0.07% |       25310      0.03%      0.09% |    86612997     99.79%     99.88% |       25389      0.03%     99.91% |       24702      0.03%     99.94% |       25493      0.03%     99.97% |       25318      0.03%    100.00% (Unspecified)
system.caches.L1Cache_Controller.Ifetch::total     86796200                       (Unspecified)
system.caches.L1Cache_Controller.Store   |       33860      0.16%      0.16% |       20980      0.10%      0.26% |       21105      0.10%      0.36% |    20824948     99.24%     99.60% |       21029      0.10%     99.70% |       20415      0.10%     99.80% |       21094      0.10%     99.90% |       21028      0.10%    100.00% (Unspecified)
system.caches.L1Cache_Controller.Store::total     20984459                       (Unspecified)
system.caches.L1Cache_Controller.Inv     |       16413     80.29%     80.29% |         597      2.92%     83.21% |         575      2.81%     86.02% |         441      2.16%     88.18% |         633      3.10%     91.28% |         605      2.96%     94.24% |         614      3.00%     97.24% |         564      2.76%    100.00% (Unspecified)
system.caches.L1Cache_Controller.Inv::total        20442                       (Unspecified)
system.caches.L1Cache_Controller.L1_Replacement |         677      0.05%      0.05% |         237      0.02%      0.06% |         216      0.02%      0.08% |     1412170     99.86%     99.94% |         208      0.01%     99.96% |         202      0.01%     99.97% |         216      0.02%     99.99% |         207      0.01%    100.00% (Unspecified)
system.caches.L1Cache_Controller.L1_Replacement::total      1414133                       (Unspecified)
system.caches.L1Cache_Controller.Fwd_GETX |           0      0.00%      0.00% |           0      0.00%      0.00% |           4    100.00%    100.00% |           0      0.00%    100.00% |           0      0.00%    100.00% |           0      0.00%    100.00% |           0      0.00%    100.00% |           0      0.00%    100.00% (Unspecified)
system.caches.L1Cache_Controller.Fwd_GETX::total            4                       (Unspecified)
system.caches.L1Cache_Controller.Fwd_GETS |       16063     97.80%     97.80% |          51      0.31%     98.11% |          55      0.33%     98.45% |          72      0.44%     98.89% |          42      0.26%     99.14% |          46      0.28%     99.42% |          49      0.30%     99.72% |          46      0.28%    100.00% (Unspecified)
system.caches.L1Cache_Controller.Fwd_GETS::total        16424                       (Unspecified)
system.caches.L1Cache_Controller.Data    |           3     37.50%     37.50% |           0      0.00%     37.50% |           0      0.00%     37.50% |           5     62.50%    100.00% |           0      0.00%    100.00% |           0      0.00%    100.00% |           0      0.00%    100.00% |           0      0.00%    100.00% (Unspecified)
system.caches.L1Cache_Controller.Data::total            8                       (Unspecified)
system.caches.L1Cache_Controller.Data_Exclusive |         100      0.01%      0.01% |          50      0.00%      0.01% |          52      0.00%      0.01% |     1396267     99.97%     99.98% |          74      0.01%     99.99% |          55      0.00%     99.99% |          60      0.00%    100.00% |          34      0.00%    100.00% (Unspecified)
system.caches.L1Cache_Controller.Data_Exclusive::total      1396692                       (Unspecified)
system.caches.L1Cache_Controller.DataS_fromL1 |          88      0.54%      0.54% |         277      1.69%      2.22% |          62      0.38%      2.60% |       15785     96.11%     98.71% |          77      0.47%     99.18% |          59      0.36%     99.54% |          52      0.32%     99.85% |          24      0.15%    100.00% (Unspecified)
system.caches.L1Cache_Controller.DataS_fromL1::total        16424                       (Unspecified)
system.caches.L1Cache_Controller.Data_all_Acks |         964      6.89%      6.89% |         559      4.00%     10.89% |         744      5.32%     16.21% |        8663     61.95%     78.16% |         757      5.41%     83.57% |         734      5.25%     88.82% |         782      5.59%     94.42% |         781      5.58%    100.00% (Unspecified)
system.caches.L1Cache_Controller.Data_all_Acks::total        13984                       (Unspecified)
system.caches.L1Cache_Controller.Ack     |        1778      9.68%      9.68% |         123      0.67%     10.34% |         123      0.67%     11.01% |       15884     86.43%     97.45% |         123      0.67%     98.12% |         107      0.58%     98.70% |         119      0.65%     99.35% |         120      0.65%    100.00% (Unspecified)
system.caches.L1Cache_Controller.Ack::total        18377                       (Unspecified)
system.caches.L1Cache_Controller.Ack_all |         279      1.70%      1.70% |          50      0.31%      2.01% |          42      0.26%      2.26% |       15839     96.66%     98.92% |          42      0.26%     99.18% |          41      0.25%     99.43% |          48      0.29%     99.72% |          46      0.28%    100.00% (Unspecified)
system.caches.L1Cache_Controller.Ack_all::total        16387                       (Unspecified)
system.caches.L1Cache_Controller.WB_Ack  |         169      0.01%      0.01% |           5      0.00%      0.01% |           0      0.00%      0.01% |     1405283     99.99%    100.00% |           0      0.00%    100.00% |           0      0.00%    100.00% |           0      0.00%    100.00% |           0      0.00%    100.00% (Unspecified)
system.caches.L1Cache_Controller.WB_Ack::total      1405457                       (Unspecified)
system.caches.L1Cache_Controller.NP.Load |         177      0.01%      0.01% |         100      0.01%      0.02% |          66      0.00%      0.02% |     1418516     99.96%     99.98% |          66      0.00%     99.99% |          58      0.00%     99.99% |          69      0.00%    100.00% |          69      0.00%    100.00% (Unspecified)
system.caches.L1Cache_Controller.NP.Load::total      1419121                       (Unspecified)
system.caches.L1Cache_Controller.NP.Ifetch |         693     22.31%     22.31% |         302      9.72%     32.03% |         310      9.98%     42.02% |         582     18.74%     60.75% |         304      9.79%     70.54% |         300      9.66%     80.20% |         311     10.01%     90.21% |         304      9.79%    100.00% (Unspecified)
system.caches.L1Cache_Controller.NP.Ifetch::total         3106                       (Unspecified)
system.caches.L1Cache_Controller.NP.Store |          49      3.30%      3.30% |           0      0.00%      3.30% |           0      0.00%      3.30% |        1436     96.70%    100.00% |           0      0.00%    100.00% |           0      0.00%    100.00% |           0      0.00%    100.00% |           0      0.00%    100.00% (Unspecified)
system.caches.L1Cache_Controller.NP.Store::total         1485                       (Unspecified)
system.caches.L1Cache_Controller.NP.Inv  |          21      7.69%      7.69% |           9      3.30%     10.99% |           5      1.83%     12.82% |         218     79.85%     92.67% |           5      1.83%     94.51% |           5      1.83%     96.34% |           5      1.83%     98.17% |           5      1.83%    100.00% (Unspecified)
system.caches.L1Cache_Controller.NP.Inv::total          273                       (Unspecified)
system.caches.L1Cache_Controller.I.Load  |         131      5.26%      5.26% |         370     14.86%     20.12% |         382     15.34%     35.46% |          54      2.17%     37.63% |         416     16.71%     54.34% |         368     14.78%     69.12% |         396     15.90%     85.02% |         373     14.98%    100.00% (Unspecified)
system.caches.L1Cache_Controller.I.Load::total         2490                       (Unspecified)
system.caches.L1Cache_Controller.I.Ifetch |          93     12.25%     12.25% |          89     11.73%     23.98% |          90     11.86%     35.84% |         132     17.39%     53.23% |          89     11.73%     64.95% |          88     11.59%     76.55% |          89     11.73%     88.27% |          89     11.73%    100.00% (Unspecified)
system.caches.L1Cache_Controller.I.Ifetch::total          759                       (Unspecified)
system.caches.L1Cache_Controller.I.Store |          12      8.16%      8.16% |          25     17.01%     25.17% |          10      6.80%     31.97% |           0      0.00%     31.97% |          33     22.45%     54.42% |          34     23.13%     77.55% |          29     19.73%     97.28% |           4      2.72%    100.00% (Unspecified)
system.caches.L1Cache_Controller.I.Store::total          147                       (Unspecified)
system.caches.L1Cache_Controller.I.L1_Replacement |          49     65.33%     65.33% |          11     14.67%     80.00% |           0      0.00%     80.00% |          15     20.00%    100.00% |           0      0.00%    100.00% |           0      0.00%    100.00% |           0      0.00%    100.00% |           0      0.00%    100.00% (Unspecified)
system.caches.L1Cache_Controller.I.L1_Replacement::total           75                       (Unspecified)
system.caches.L1Cache_Controller.S.Load  |        6175      2.25%      2.25% |        7210      2.62%      4.87% |        7189      2.62%      7.49% |      226040     82.25%     89.73% |        6849      2.49%     92.23% |        6914      2.52%     94.74% |        7254      2.64%     97.38% |        7199      2.62%    100.00% (Unspecified)
system.caches.L1Cache_Controller.S.Load::total       274830                       (Unspecified)
system.caches.L1Cache_Controller.S.Ifetch |       30974      0.04%      0.04% |       24840      0.03%      0.06% |       24910      0.03%      0.09% |    86612283     99.79%     99.89% |       24996      0.03%     99.91% |       24314      0.03%     99.94% |       25093      0.03%     99.97% |       24925      0.03%    100.00% (Unspecified)
system.caches.L1Cache_Controller.S.Ifetch::total     86792335                       (Unspecified)
system.caches.L1Cache_Controller.S.Store |         276      1.69%      1.69% |          50      0.31%      1.99% |          42      0.26%      2.25% |       15834     96.67%     98.92% |          42      0.26%     99.18% |          41      0.25%     99.43% |          48      0.29%     99.72% |          46      0.28%    100.00% (Unspecified)
system.caches.L1Cache_Controller.S.Store::total        16379                       (Unspecified)
system.caches.L1Cache_Controller.S.Inv   |       16072     82.71%     82.71% |         521      2.68%     85.39% |         525      2.70%     88.10% |         221      1.14%     89.23% |         529      2.72%     91.96% |         516      2.66%     94.61% |         523      2.69%     97.30% |         524      2.70%    100.00% (Unspecified)
system.caches.L1Cache_Controller.S.Inv::total        19431                       (Unspecified)
system.caches.L1Cache_Controller.S.L1_Replacement |         459      5.34%      5.34% |         221      2.57%      7.91% |         216      2.51%     10.42% |        6872     79.90%     90.32% |         208      2.42%     92.73% |         202      2.35%     95.08% |         216      2.51%     97.59% |         207      2.41%    100.00% (Unspecified)
system.caches.L1Cache_Controller.S.L1_Replacement::total         8601                       (Unspecified)
system.caches.L1Cache_Controller.E.Load  |        6506      0.06%      0.06% |        5288      0.05%      0.12% |        5843      0.06%      0.17% |    10043135     99.60%     99.77% |        5822      0.06%     99.83% |        5607      0.06%     99.89% |        5825      0.06%     99.94% |        5658      0.06%    100.00% (Unspecified)
system.caches.L1Cache_Controller.E.Load::total     10083684                       (Unspecified)
system.caches.L1Cache_Controller.E.Store |          17      0.00%      0.00% |           9      0.00%      0.00% |           4      0.00%      0.00% |     1159058     99.99%    100.00% |          13      0.00%    100.00% |          10      0.00%    100.00% |          12      0.00%    100.00% |           7      0.00%    100.00% (Unspecified)
system.caches.L1Cache_Controller.E.Store::total      1159130                       (Unspecified)
system.caches.L1Cache_Controller.E.Inv   |          34     13.13%     13.13% |          32     12.36%     25.48% |          31     11.97%     37.45% |           0      0.00%     37.45% |          53     20.46%     57.92% |          40     15.44%     73.36% |          45     17.37%     90.73% |          24      9.27%    100.00% (Unspecified)
system.caches.L1Cache_Controller.E.Inv::total          259                       (Unspecified)
system.caches.L1Cache_Controller.E.L1_Replacement |           0      0.00%      0.00% |           5      0.00%      0.00% |           0      0.00%      0.00% |      237263    100.00%    100.00% |           0      0.00%    100.00% |           0      0.00%    100.00% |           0      0.00%    100.00% |           0      0.00%    100.00% (Unspecified)
system.caches.L1Cache_Controller.E.L1_Replacement::total       237268                       (Unspecified)
system.caches.L1Cache_Controller.E.Fwd_GETX |           0      0.00%      0.00% |           0      0.00%      0.00% |           4    100.00%    100.00% |           0      0.00%    100.00% |           0      0.00%    100.00% |           0      0.00%    100.00% |           0      0.00%    100.00% |           0      0.00%    100.00% (Unspecified)
system.caches.L1Cache_Controller.E.Fwd_GETX::total            4                       (Unspecified)
system.caches.L1Cache_Controller.E.Fwd_GETS |          20     37.74%     37.74% |           1      1.89%     39.62% |          13     24.53%     64.15% |          13     24.53%     88.68% |           3      5.66%     94.34% |           2      3.77%     98.11% |           1      1.89%    100.00% |           0      0.00%    100.00% (Unspecified)
system.caches.L1Cache_Controller.E.Fwd_GETS::total           53                       (Unspecified)
system.caches.L1Cache_Controller.M.Load  |       24677      0.03%      0.03% |       13068      0.01%      0.04% |       12935      0.01%      0.05% |    92458072     99.89%     99.94% |       12993      0.01%     99.96% |       12657      0.01%     99.97% |       12919      0.01%     99.99% |       12936      0.01%    100.00% (Unspecified)
system.caches.L1Cache_Controller.M.Load::total     92560257                       (Unspecified)
system.caches.L1Cache_Controller.M.Store |       33506      0.17%      0.17% |       20896      0.11%      0.27% |       21049      0.11%      0.38% |    19648620     99.20%     99.58% |       20941      0.11%     99.69% |       20330      0.10%     99.79% |       21005      0.11%     99.89% |       20971      0.11%    100.00% (Unspecified)
system.caches.L1Cache_Controller.M.Store::total     19807318                       (Unspecified)
system.caches.L1Cache_Controller.M.Inv   |         286     59.71%     59.71% |          35      7.31%     67.01% |          14      2.92%     69.94% |           2      0.42%     70.35% |          46      9.60%     79.96% |          44      9.19%     89.14% |          41      8.56%     97.70% |          11      2.30%    100.00% (Unspecified)
system.caches.L1Cache_Controller.M.Inv::total          479                       (Unspecified)
system.caches.L1Cache_Controller.M.L1_Replacement |         169      0.01%      0.01% |           0      0.00%      0.01% |           0      0.00%      0.01% |     1168020     99.99%    100.00% |           0      0.00%    100.00% |           0      0.00%    100.00% |           0      0.00%    100.00% |           0      0.00%    100.00% (Unspecified)
system.caches.L1Cache_Controller.M.L1_Replacement::total      1168189                       (Unspecified)
system.caches.L1Cache_Controller.M.Fwd_GETS |       16043     98.00%     98.00% |          50      0.31%     98.30% |          42      0.26%     98.56% |          59      0.36%     98.92% |          39      0.24%     99.16% |          44      0.27%     99.43% |          48      0.29%     99.72% |          46      0.28%    100.00% (Unspecified)
system.caches.L1Cache_Controller.M.Fwd_GETS::total        16371                       (Unspecified)
system.caches.L1Cache_Controller.IS.Data_Exclusive |         100      0.01%      0.01% |          50      0.00%      0.01% |          52      0.00%      0.01% |     1396267     99.97%     99.98% |          74      0.01%     99.99% |          55      0.00%     99.99% |          60      0.00%    100.00% |          34      0.00%    100.00% (Unspecified)
system.caches.L1Cache_Controller.IS.Data_Exclusive::total      1396692                       (Unspecified)
system.caches.L1Cache_Controller.IS.DataS_fromL1 |          88      0.54%      0.54% |         277      1.69%      2.22% |          62      0.38%      2.60% |       15785     96.11%     98.71% |          77      0.47%     99.18% |          59      0.36%     99.54% |          52      0.32%     99.85% |          24      0.15%    100.00% (Unspecified)
system.caches.L1Cache_Controller.IS.DataS_fromL1::total        16424                       (Unspecified)
system.caches.L1Cache_Controller.IS.Data_all_Acks |         906      7.33%      7.33% |         534      4.32%     11.65% |         734      5.94%     17.59% |        7232     58.51%     76.10% |         724      5.86%     81.96% |         700      5.66%     87.62% |         753      6.09%     93.71% |         777      6.29%    100.00% (Unspecified)
system.caches.L1Cache_Controller.IS.Data_all_Acks::total        12360                       (Unspecified)
system.caches.L1Cache_Controller.IM.Data |           3     37.50%     37.50% |           0      0.00%     37.50% |           0      0.00%     37.50% |           5     62.50%    100.00% |           0      0.00%    100.00% |           0      0.00%    100.00% |           0      0.00%    100.00% |           0      0.00%    100.00% (Unspecified)
system.caches.L1Cache_Controller.IM.Data::total            8                       (Unspecified)
system.caches.L1Cache_Controller.IM.Data_all_Acks |          58      3.57%      3.57% |          25      1.54%      5.11% |          10      0.62%      5.73% |        1431     88.12%     93.84% |          33      2.03%     95.87% |          34      2.09%     97.97% |          29      1.79%     99.75% |           4      0.25%    100.00% (Unspecified)
system.caches.L1Cache_Controller.IM.Data_all_Acks::total         1624                       (Unspecified)
system.caches.L1Cache_Controller.SM.Ack  |        1778      9.68%      9.68% |         123      0.67%     10.34% |         123      0.67%     11.01% |       15884     86.43%     97.45% |         123      0.67%     98.12% |         107      0.58%     98.70% |         119      0.65%     99.35% |         120      0.65%    100.00% (Unspecified)
system.caches.L1Cache_Controller.SM.Ack::total        18377                       (Unspecified)
system.caches.L1Cache_Controller.SM.Ack_all |         279      1.70%      1.70% |          50      0.31%      2.01% |          42      0.26%      2.26% |       15839     96.66%     98.92% |          42      0.26%     99.18% |          41      0.25%     99.43% |          48      0.29%     99.72% |          46      0.28%    100.00% (Unspecified)
system.caches.L1Cache_Controller.SM.Ack_all::total        16387                       (Unspecified)
system.caches.L1Cache_Controller.M_I.WB_Ack |         169      0.01%      0.01% |           5      0.00%      0.01% |           0      0.00%      0.01% |     1405283     99.99%    100.00% |           0      0.00%    100.00% |           0      0.00%    100.00% |           0      0.00%    100.00% |           0      0.00%    100.00% (Unspecified)
system.caches.L1Cache_Controller.M_I.WB_Ack::total      1405457                       (Unspecified)
system.caches.Directory_Controller.Fetch |         300      0.13%      0.13% |      233520     99.87%    100.00% (Unspecified)
system.caches.Directory_Controller.Fetch::total       233820                       (Unspecified)
system.caches.Directory_Controller.Data  |           1      0.00%      0.00% |       99491    100.00%    100.00% (Unspecified)
system.caches.Directory_Controller.Data::total        99492                       (Unspecified)
system.caches.Directory_Controller.Memory_Data |         300      0.13%      0.13% |      233520     99.87%    100.00% (Unspecified)
system.caches.Directory_Controller.Memory_Data::total       233820                       (Unspecified)
system.caches.Directory_Controller.Memory_Ack |           1      0.00%      0.00% |       99491    100.00%    100.00% (Unspecified)
system.caches.Directory_Controller.Memory_Ack::total        99492                       (Unspecified)
system.caches.Directory_Controller.CleanReplacement |         213      6.54%      6.54% |        3043     93.46%    100.00% (Unspecified)
system.caches.Directory_Controller.CleanReplacement::total         3256                       (Unspecified)
system.caches.Directory_Controller.I.Fetch |         300      0.13%      0.13% |      233520     99.87%    100.00% (Unspecified)
system.caches.Directory_Controller.I.Fetch::total       233820                       (Unspecified)
system.caches.Directory_Controller.M.Data |           1      0.00%      0.00% |       99491    100.00%    100.00% (Unspecified)
system.caches.Directory_Controller.M.Data::total        99492                       (Unspecified)
system.caches.Directory_Controller.M.CleanReplacement |         213      6.54%      6.54% |        3043     93.46%    100.00% (Unspecified)
system.caches.Directory_Controller.M.CleanReplacement::total         3256                       (Unspecified)
system.caches.Directory_Controller.IM.Memory_Data |         300      0.13%      0.13% |      233520     99.87%    100.00% (Unspecified)
system.caches.Directory_Controller.IM.Memory_Data::total       233820                       (Unspecified)
system.caches.Directory_Controller.MI.Memory_Ack |           1      0.00%      0.00% |       99491    100.00%    100.00% (Unspecified)
system.caches.Directory_Controller.MI.Memory_Ack::total        99492                       (Unspecified)
system.caches.L2Cache_Controller.L1_GET_INSTR |         304      7.86%      7.86% |        1859     48.09%     55.95% |         325      8.41%     64.36% |         192      4.97%     69.32% |         222      5.74%     75.06% |         234      6.05%     81.12% |         237      6.13%     87.25% |         493     12.75%    100.00% (Unspecified)
system.caches.L2Cache_Controller.L1_GET_INSTR::total         3866                       (Unspecified)
system.caches.L2Cache_Controller.L1_GETS |      178771     12.58%     12.58% |      177897     12.51%     25.09% |      177474     12.48%     37.57% |      177250     12.47%     50.04% |      177529     12.49%     62.53% |      177245     12.47%     75.00% |      177635     12.50%     87.49% |      177810     12.51%    100.00% (Unspecified)
system.caches.L2Cache_Controller.L1_GETS::total      1421611                       (Unspecified)
system.caches.L2Cache_Controller.L1_GETX |         246     15.07%     15.07% |         196     12.01%     27.08% |         111      6.80%     33.88% |         163      9.99%     43.87% |         207     12.68%     56.56% |         314     19.24%     75.80% |         190     11.64%     87.44% |         205     12.56%    100.00% (Unspecified)
system.caches.L2Cache_Controller.L1_GETX::total         1632                       (Unspecified)
system.caches.L2Cache_Controller.L1_UPGRADE |        2122     12.96%     12.96% |        2026     12.37%     25.33% |        1965     12.00%     37.32% |        1985     12.12%     49.44% |        2098     12.81%     62.25% |        1975     12.06%     74.31% |        2103     12.84%     87.15% |        2105     12.85%    100.00% (Unspecified)
system.caches.L2Cache_Controller.L1_UPGRADE::total        16379                       (Unspecified)
system.caches.L2Cache_Controller.L1_PUTX |      175866     12.51%     12.51% |      175747     12.50%     25.02% |      175518     12.49%     37.51% |      175614     12.50%     50.00% |      175585     12.49%     62.49% |      175752     12.50%     75.00% |      175479     12.49%     87.48% |      175896     12.52%    100.00% (Unspecified)
system.caches.L2Cache_Controller.L1_PUTX::total      1405457                       (Unspecified)
system.caches.L2Cache_Controller.L2_Replacement |       12428     12.55%     12.55% |       12399     12.52%     25.07% |       12382     12.50%     37.57% |       12387     12.51%     50.08% |       12345     12.47%     62.55% |       12392     12.51%     75.06% |       12312     12.43%     87.49% |       12385     12.51%    100.00% (Unspecified)
system.caches.L2Cache_Controller.L2_Replacement::total        99030                       (Unspecified)
system.caches.L2Cache_Controller.L2_Replacement_clean |         485     13.04%     13.04% |         481     12.94%     25.98% |         450     12.10%     38.08% |         477     12.83%     50.91% |         472     12.69%     63.61% |         450     12.10%     75.71% |         438     11.78%     87.49% |         465     12.51%    100.00% (Unspecified)
system.caches.L2Cache_Controller.L2_Replacement_clean::total         3718                       (Unspecified)
system.caches.L2Cache_Controller.Mem_Data |       29297     12.53%     12.53% |       29264     12.52%     25.05% |       29216     12.50%     37.54% |       29248     12.51%     50.05% |       29201     12.49%     62.54% |       29226     12.50%     75.04% |       29134     12.46%     87.50% |       29234     12.50%    100.00% (Unspecified)
system.caches.L2Cache_Controller.Mem_Data::total       233820                       (Unspecified)
system.caches.L2Cache_Controller.Mem_Ack |       12913     12.57%     12.57% |       12880     12.54%     25.10% |       12832     12.49%     37.59% |       12864     12.52%     50.11% |       12817     12.47%     62.59% |       12842     12.50%     75.08% |       12750     12.41%     87.49% |       12850     12.51%    100.00% (Unspecified)
system.caches.L2Cache_Controller.Mem_Ack::total       102748                       (Unspecified)
system.caches.L2Cache_Controller.WB_Data |        2195     13.03%     13.03% |        2092     12.42%     25.44% |        2035     12.08%     37.52% |        2044     12.13%     49.65% |        2146     12.74%     62.39% |        2044     12.13%     74.52% |        2132     12.65%     87.17% |        2162     12.83%    100.00% (Unspecified)
system.caches.L2Cache_Controller.WB_Data::total        16850                       (Unspecified)
system.caches.L2Cache_Controller.WB_Data_clean |          12     22.64%     22.64% |           6     11.32%     33.96% |           7     13.21%     47.17% |           2      3.77%     50.94% |           7     13.21%     64.15% |           4      7.55%     71.70% |           9     16.98%     88.68% |           6     11.32%    100.00% (Unspecified)
system.caches.L2Cache_Controller.WB_Data_clean::total           53                       (Unspecified)
system.caches.L2Cache_Controller.Ack     |         137     12.45%     12.45% |         183     16.64%     29.09% |         130     11.82%     40.91% |         116     10.55%     51.45% |         132     12.00%     63.45% |         140     12.73%     76.18% |         140     12.73%     88.91% |         122     11.09%    100.00% (Unspecified)
system.caches.L2Cache_Controller.Ack::total         1100                       (Unspecified)
system.caches.L2Cache_Controller.Ack_all |          64     13.39%     13.39% |          71     14.85%     28.24% |          53     11.09%     39.33% |          73     15.27%     54.60% |          56     11.72%     66.32% |          51     10.67%     76.99% |          61     12.76%     89.75% |          49     10.25%    100.00% (Unspecified)
system.caches.L2Cache_Controller.Ack_all::total          478                       (Unspecified)
system.caches.L2Cache_Controller.Unblock |        2131     12.97%     12.97% |        2032     12.37%     25.35% |        1972     12.01%     37.35% |        1987     12.10%     49.45% |        2110     12.85%     62.30% |        1979     12.05%     74.35% |        2107     12.83%     87.18% |        2106     12.82%    100.00% (Unspecified)
system.caches.L2Cache_Controller.Unblock::total        16424                       (Unspecified)
system.caches.L2Cache_Controller.Exclusive_Unblock |      177122     12.52%     12.52% |      176884     12.50%     25.02% |      176598     12.48%     37.51% |      176720     12.49%     50.00% |      176781     12.50%     62.49% |      176842     12.50%     74.99% |      176651     12.49%     87.48% |      177105     12.52%    100.00% (Unspecified)
system.caches.L2Cache_Controller.Exclusive_Unblock::total      1414703                       (Unspecified)
system.caches.L2Cache_Controller.NP.L1_GET_INSTR |          39     13.59%     13.59% |          49     17.07%     30.66% |          31     10.80%     41.46% |          30     10.45%     51.92% |          34     11.85%     63.76% |          35     12.20%     75.96% |          37     12.89%     88.85% |          32     11.15%    100.00% (Unspecified)
system.caches.L2Cache_Controller.NP.L1_GET_INSTR::total          287                       (Unspecified)
system.caches.L2Cache_Controller.NP.L1_GETS |       29225     12.52%     12.52% |       29192     12.51%     25.03% |       29175     12.50%     37.53% |       29204     12.51%     50.05% |       29156     12.49%     62.54% |       29163     12.50%     75.04% |       29086     12.46%     87.50% |       29175     12.50%    100.00% (Unspecified)
system.caches.L2Cache_Controller.NP.L1_GETS::total       233376                       (Unspecified)
system.caches.L2Cache_Controller.NP.L1_GETX |          33     21.02%     21.02% |          23     14.65%     35.67% |          10      6.37%     42.04% |          14      8.92%     50.96% |          11      7.01%     57.96% |          28     17.83%     75.80% |          11      7.01%     82.80% |          27     17.20%    100.00% (Unspecified)
system.caches.L2Cache_Controller.NP.L1_GETX::total          157                       (Unspecified)
system.caches.L2Cache_Controller.SS.L1_GET_INSTR |         259      7.32%      7.32% |        1802     50.93%     58.25% |         288      8.14%     66.39% |         158      4.47%     70.86% |         187      5.29%     76.14% |         195      5.51%     81.66% |         194      5.48%     87.14% |         455     12.86%    100.00% (Unspecified)
system.caches.L2Cache_Controller.SS.L1_GET_INSTR::total         3538                       (Unspecified)
system.caches.L2Cache_Controller.SS.L1_GETS |        1886     22.20%     22.20% |        1203     14.16%     36.36% |         980     11.54%     47.90% |         691      8.13%     56.03% |         943     11.10%     67.13% |         713      8.39%     75.53% |        1170     13.77%     89.30% |         909     10.70%    100.00% (Unspecified)
system.caches.L2Cache_Controller.SS.L1_GETS::total         8495                       (Unspecified)
system.caches.L2Cache_Controller.SS.L1_GETX |           2     25.00%     25.00% |           0      0.00%     25.00% |           0      0.00%     25.00% |           0      0.00%     25.00% |           5     62.50%     87.50% |           0      0.00%     87.50% |           1     12.50%    100.00% |           0      0.00%    100.00% (Unspecified)
system.caches.L2Cache_Controller.SS.L1_GETX::total            8                       (Unspecified)
system.caches.L2Cache_Controller.SS.L1_UPGRADE |        2122     12.96%     12.96% |        2026     12.37%     25.33% |        1965     12.00%     37.32% |        1985     12.12%     49.44% |        2098     12.81%     62.25% |        1975     12.06%     74.31% |        2103     12.84%     87.15% |        2105     12.85%    100.00% (Unspecified)
system.caches.L2Cache_Controller.SS.L1_UPGRADE::total        16379                       (Unspecified)
system.caches.L2Cache_Controller.SS.L2_Replacement_clean |          27     12.33%     12.33% |          37     16.89%     29.22% |          26     11.87%     41.10% |          23     10.50%     51.60% |          25     11.42%     63.01% |          27     12.33%     75.34% |          31     14.16%     89.50% |          23     10.50%    100.00% (Unspecified)
system.caches.L2Cache_Controller.SS.L2_Replacement_clean::total          219                       (Unspecified)
system.caches.L2Cache_Controller.M.L1_GET_INSTR |           4     21.05%     21.05% |           4     21.05%     42.11% |           3     15.79%     57.89% |           1      5.26%     63.16% |           0      0.00%     63.16% |           1      5.26%     68.42% |           2     10.53%     78.95% |           4     21.05%    100.00% (Unspecified)
system.caches.L2Cache_Controller.M.L1_GET_INSTR::total           19                       (Unspecified)
system.caches.L2Cache_Controller.M.L1_GETS |      145529     12.51%     12.51% |      145470     12.50%     25.01% |      145347     12.49%     37.51% |      145368     12.50%     50.00% |      145320     12.49%     62.50% |      145390     12.50%     74.99% |      145272     12.49%     87.48% |      145620     12.52%    100.00% (Unspecified)
system.caches.L2Cache_Controller.M.L1_GETS::total      1163316                       (Unspecified)
system.caches.L2Cache_Controller.M.L1_GETX |         211     14.42%     14.42% |         173     11.83%     26.25% |         101      6.90%     33.15% |         149     10.18%     43.34% |         187     12.78%     56.12% |         286     19.55%     75.67% |         178     12.17%     87.83% |         178     12.17%    100.00% (Unspecified)
system.caches.L2Cache_Controller.M.L1_GETX::total         1463                       (Unspecified)
system.caches.L2Cache_Controller.M.L2_Replacement |       12423     12.55%     12.55% |       12398     12.52%     25.07% |       12380     12.50%     37.57% |       12384     12.51%     50.08% |       12345     12.47%     62.55% |       12388     12.51%     75.06% |       12312     12.43%     87.49% |       12383     12.51%    100.00% (Unspecified)
system.caches.L2Cache_Controller.M.L2_Replacement::total        99013                       (Unspecified)
system.caches.L2Cache_Controller.M.L2_Replacement_clean |         350     12.60%     12.60% |         345     12.42%     25.02% |         329     11.84%     36.86% |         348     12.53%     49.39% |         373     13.43%     62.81% |         334     12.02%     74.84% |         343     12.35%     87.19% |         356     12.81%    100.00% (Unspecified)
system.caches.L2Cache_Controller.M.L2_Replacement_clean::total         2778                       (Unspecified)
system.caches.L2Cache_Controller.MT.L1_GETS |        2131     12.97%     12.97% |        2032     12.37%     25.35% |        1972     12.01%     37.35% |        1987     12.10%     49.45% |        2110     12.85%     62.30% |        1979     12.05%     74.35% |        2107     12.83%     87.18% |        2106     12.82%    100.00% (Unspecified)
system.caches.L2Cache_Controller.MT.L1_GETS::total        16424                       (Unspecified)
system.caches.L2Cache_Controller.MT.L1_GETX |           0      0.00%      0.00% |           0      0.00%      0.00% |           0      0.00%      0.00% |           0      0.00%      0.00% |           4    100.00%    100.00% |           0      0.00%    100.00% |           0      0.00%    100.00% |           0      0.00%    100.00% (Unspecified)
system.caches.L2Cache_Controller.MT.L1_GETX::total            4                       (Unspecified)
system.caches.L2Cache_Controller.MT.L1_PUTX |      175866     12.51%     12.51% |      175747     12.50%     25.02% |      175518     12.49%     37.51% |      175614     12.50%     50.00% |      175585     12.49%     62.49% |      175752     12.50%     75.00% |      175479     12.49%     87.48% |      175896     12.52%    100.00% (Unspecified)
system.caches.L2Cache_Controller.MT.L1_PUTX::total      1405457                       (Unspecified)
system.caches.L2Cache_Controller.MT.L2_Replacement |           5     29.41%     29.41% |           1      5.88%     35.29% |           2     11.76%     47.06% |           3     17.65%     64.71% |           0      0.00%     64.71% |           4     23.53%     88.24% |           0      0.00%     88.24% |           2     11.76%    100.00% (Unspecified)
system.caches.L2Cache_Controller.MT.L2_Replacement::total           17                       (Unspecified)
system.caches.L2Cache_Controller.MT.L2_Replacement_clean |         108     14.98%     14.98% |          99     13.73%     28.71% |          95     13.18%     41.89% |         106     14.70%     56.59% |          74     10.26%     66.85% |          89     12.34%     79.20% |          64      8.88%     88.07% |          86     11.93%    100.00% (Unspecified)
system.caches.L2Cache_Controller.MT.L2_Replacement_clean::total          721                       (Unspecified)
system.caches.L2Cache_Controller.M_I.L1_GET_INSTR |           0      0.00%      0.00% |           0      0.00%      0.00% |           1    100.00%    100.00% |           0      0.00%    100.00% |           0      0.00%    100.00% |           0      0.00%    100.00% |           0      0.00%    100.00% |           0      0.00%    100.00% (Unspecified)
system.caches.L2Cache_Controller.M_I.L1_GET_INSTR::total            1                       (Unspecified)
system.caches.L2Cache_Controller.M_I.Mem_Ack |       12913     12.57%     12.57% |       12880     12.54%     25.10% |       12832     12.49%     37.59% |       12864     12.52%     50.11% |       12817     12.47%     62.59% |       12842     12.50%     75.08% |       12750     12.41%     87.49% |       12850     12.51%    100.00% (Unspecified)
system.caches.L2Cache_Controller.M_I.Mem_Ack::total       102748                       (Unspecified)
system.caches.L2Cache_Controller.MT_I.WB_Data |           5     29.41%     29.41% |           1      5.88%     35.29% |           2     11.76%     47.06% |           3     17.65%     64.71% |           0      0.00%     64.71% |           4     23.53%     88.24% |           0      0.00%     88.24% |           2     11.76%    100.00% (Unspecified)
system.caches.L2Cache_Controller.MT_I.WB_Data::total           17                       (Unspecified)
system.caches.L2Cache_Controller.MCT_I.WB_Data |          71     15.37%     15.37% |          65     14.07%     29.44% |          68     14.72%     44.16% |          56     12.12%     56.28% |          43      9.31%     65.58% |          65     14.07%     79.65% |          34      7.36%     87.01% |          60     12.99%    100.00% (Unspecified)
system.caches.L2Cache_Controller.MCT_I.WB_Data::total          462                       (Unspecified)
system.caches.L2Cache_Controller.MCT_I.Ack_all |          37     14.29%     14.29% |          34     13.13%     27.41% |          27     10.42%     37.84% |          50     19.31%     57.14% |          31     11.97%     69.11% |          24      9.27%     78.38% |          30     11.58%     89.96% |          26     10.04%    100.00% (Unspecified)
system.caches.L2Cache_Controller.MCT_I.Ack_all::total          259                       (Unspecified)
system.caches.L2Cache_Controller.I_I.Ack |         137     12.45%     12.45% |         183     16.64%     29.09% |         130     11.82%     40.91% |         116     10.55%     51.45% |         132     12.00%     63.45% |         140     12.73%     76.18% |         140     12.73%     88.91% |         122     11.09%    100.00% (Unspecified)
system.caches.L2Cache_Controller.I_I.Ack::total         1100                       (Unspecified)
system.caches.L2Cache_Controller.I_I.Ack_all |          27     12.33%     12.33% |          37     16.89%     29.22% |          26     11.87%     41.10% |          23     10.50%     51.60% |          25     11.42%     63.01% |          27     12.33%     75.34% |          31     14.16%     89.50% |          23     10.50%    100.00% (Unspecified)
system.caches.L2Cache_Controller.I_I.Ack_all::total          219                       (Unspecified)
system.caches.L2Cache_Controller.ISS.Mem_Data |       29225     12.52%     12.52% |       29192     12.51%     25.03% |       29175     12.50%     37.53% |       29204     12.51%     50.05% |       29156     12.49%     62.54% |       29163     12.50%     75.04% |       29086     12.46%     87.50% |       29175     12.50%    100.00% (Unspecified)
system.caches.L2Cache_Controller.ISS.Mem_Data::total       233376                       (Unspecified)
system.caches.L2Cache_Controller.IS.L1_GET_INSTR |           2      9.52%      9.52% |           4     19.05%     28.57% |           2      9.52%     38.10% |           3     14.29%     52.38% |           1      4.76%     57.14% |           3     14.29%     71.43% |           4     19.05%     90.48% |           2      9.52%    100.00% (Unspecified)
system.caches.L2Cache_Controller.IS.L1_GET_INSTR::total           21                       (Unspecified)
system.caches.L2Cache_Controller.IS.Mem_Data |          39     13.59%     13.59% |          49     17.07%     30.66% |          31     10.80%     41.46% |          30     10.45%     51.92% |          34     11.85%     63.76% |          35     12.20%     75.96% |          37     12.89%     88.85% |          32     11.15%    100.00% (Unspecified)
system.caches.L2Cache_Controller.IS.Mem_Data::total          287                       (Unspecified)
system.caches.L2Cache_Controller.IM.Mem_Data |          33     21.02%     21.02% |          23     14.65%     35.67% |          10      6.37%     42.04% |          14      8.92%     50.96% |          11      7.01%     57.96% |          28     17.83%     75.80% |          11      7.01%     82.80% |          27     17.20%    100.00% (Unspecified)
system.caches.L2Cache_Controller.IM.Mem_Data::total          157                       (Unspecified)
system.caches.L2Cache_Controller.SS_MB.Exclusive_Unblock |        2124     12.96%     12.96% |        2026     12.36%     25.32% |        1965     11.99%     37.32% |        1985     12.11%     49.43% |        2103     12.83%     62.26% |        1975     12.05%     74.32% |        2104     12.84%     87.15% |        2105     12.85%    100.00% (Unspecified)
system.caches.L2Cache_Controller.SS_MB.Exclusive_Unblock::total        16387                       (Unspecified)
system.caches.L2Cache_Controller.MT_MB.Exclusive_Unblock |      174998     12.51%     12.51% |      174858     12.50%     25.02% |      174633     12.49%     37.51% |      174735     12.50%     50.00% |      174678     12.49%     62.50% |      174867     12.51%     75.00% |      174547     12.48%     87.48% |      175000     12.52%    100.00% (Unspecified)
system.caches.L2Cache_Controller.MT_MB.Exclusive_Unblock::total      1398316                       (Unspecified)
system.caches.L2Cache_Controller.MT_IIB.WB_Data |        2119     12.94%     12.94% |        2026     12.38%     25.32% |        1965     12.00%     37.32% |        1985     12.13%     49.45% |        2103     12.85%     62.29% |        1975     12.06%     74.36% |        2098     12.82%     87.17% |        2100     12.83%    100.00% (Unspecified)
system.caches.L2Cache_Controller.MT_IIB.WB_Data::total        16371                       (Unspecified)
system.caches.L2Cache_Controller.MT_IIB.WB_Data_clean |          12     22.64%     22.64% |           6     11.32%     33.96% |           7     13.21%     47.17% |           2      3.77%     50.94% |           7     13.21%     64.15% |           4      7.55%     71.70% |           9     16.98%     88.68% |           6     11.32%    100.00% (Unspecified)
system.caches.L2Cache_Controller.MT_IIB.WB_Data_clean::total           53                       (Unspecified)
system.caches.L2Cache_Controller.MT_SB.Unblock |        2131     12.97%     12.97% |        2032     12.37%     25.35% |        1972     12.01%     37.35% |        1987     12.10%     49.45% |        2110     12.85%     62.30% |        1979     12.05%     74.35% |        2107     12.83%     87.18% |        2106     12.82%    100.00% (Unspecified)
system.caches.L2Cache_Controller.MT_SB.Unblock::total        16424                       (Unspecified)
system.caches.RequestType.LD.latency_hist_seqr::bucket_size          512                       (Unspecified)
system.caches.RequestType.LD.latency_hist_seqr::max_bucket         5119                       (Unspecified)
system.caches.RequestType.LD.latency_hist_seqr::samples    104340382                       (Unspecified)
system.caches.RequestType.LD.latency_hist_seqr::mean     2.675638                       (Unspecified)
system.caches.RequestType.LD.latency_hist_seqr::gmean     1.047875                       (Unspecified)
system.caches.RequestType.LD.latency_hist_seqr::stdev    35.175281                       (Unspecified)
system.caches.RequestType.LD.latency_hist_seqr |   104189449     99.86%     99.86% |      128829      0.12%     99.98% |       16884      0.02%     99.99% |        4149      0.00%    100.00% |         665      0.00%    100.00% |         372      0.00%    100.00% |          33      0.00%    100.00% |           1      0.00%    100.00% |           0      0.00%    100.00% |           0      0.00%    100.00% (Unspecified)
system.caches.RequestType.LD.latency_hist_seqr::total    104340382                       (Unspecified)
system.caches.RequestType.LD.hit_latency_hist_seqr::bucket_size            1                       (Unspecified)
system.caches.RequestType.LD.hit_latency_hist_seqr::max_bucket            9                       (Unspecified)
system.caches.RequestType.LD.hit_latency_hist_seqr::samples    102918771                       (Unspecified)
system.caches.RequestType.LD.hit_latency_hist_seqr::mean     1.000420                       (Unspecified)
system.caches.RequestType.LD.hit_latency_hist_seqr::gmean     1.000291                       (Unspecified)
system.caches.RequestType.LD.hit_latency_hist_seqr::stdev     0.020482                       (Unspecified)
system.caches.RequestType.LD.hit_latency_hist_seqr |           0      0.00%      0.00% |   102875576     99.96%     99.96% |       43195      0.04%    100.00% |           0      0.00%    100.00% |           0      0.00%    100.00% |           0      0.00%    100.00% |           0      0.00%    100.00% |           0      0.00%    100.00% |           0      0.00%    100.00% |           0      0.00%    100.00% (Unspecified)
system.caches.RequestType.LD.hit_latency_hist_seqr::total    102918771                       (Unspecified)
system.caches.RequestType.LD.miss_latency_hist_seqr::bucket_size          512                       (Unspecified)
system.caches.RequestType.LD.miss_latency_hist_seqr::max_bucket         5119                       (Unspecified)
system.caches.RequestType.LD.miss_latency_hist_seqr::samples      1421611                       (Unspecified)
system.caches.RequestType.LD.miss_latency_hist_seqr::mean   123.954536                       (Unspecified)
system.caches.RequestType.LD.miss_latency_hist_seqr::gmean    30.302663                       (Unspecified)
system.caches.RequestType.LD.miss_latency_hist_seqr::stdev   275.501413                       (Unspecified)
system.caches.RequestType.LD.miss_latency_hist_seqr |     1270678     89.38%     89.38% |      128829      9.06%     98.45% |       16884      1.19%     99.63% |        4149      0.29%     99.92% |         665      0.05%     99.97% |         372      0.03%    100.00% |          33      0.00%    100.00% |           1      0.00%    100.00% |           0      0.00%    100.00% |           0      0.00%    100.00% (Unspecified)
system.caches.RequestType.LD.miss_latency_hist_seqr::total      1421611                       (Unspecified)
system.caches.RequestType.ST.latency_hist_seqr::bucket_size          256                       (Unspecified)
system.caches.RequestType.ST.latency_hist_seqr::max_bucket         2559                       (Unspecified)
system.caches.RequestType.ST.latency_hist_seqr::samples     20959263                       (Unspecified)
system.caches.RequestType.ST.latency_hist_seqr::mean     1.190751                       (Unspecified)
system.caches.RequestType.ST.latency_hist_seqr::gmean     1.130750                       (Unspecified)
system.caches.RequestType.ST.latency_hist_seqr::stdev     1.614842                       (Unspecified)
system.caches.RequestType.ST.latency_hist_seqr |    20959153    100.00%    100.00% |          68      0.00%    100.00% |          21      0.00%    100.00% |           8      0.00%    100.00% |           7      0.00%    100.00% |           3      0.00%    100.00% |           3      0.00%    100.00% |           0      0.00%    100.00% |           0      0.00%    100.00% |           0      0.00%    100.00% (Unspecified)
system.caches.RequestType.ST.latency_hist_seqr::total     20959263                       (Unspecified)
system.caches.RequestType.ST.hit_latency_hist_seqr::bucket_size          256                       (Unspecified)
system.caches.RequestType.ST.hit_latency_hist_seqr::max_bucket         2559                       (Unspecified)
system.caches.RequestType.ST.hit_latency_hist_seqr::samples     20942188                       (Unspecified)
system.caches.RequestType.ST.hit_latency_hist_seqr::mean     1.174053                       (Unspecified)
system.caches.RequestType.ST.hit_latency_hist_seqr::gmean     1.128172                       (Unspecified)
system.caches.RequestType.ST.hit_latency_hist_seqr::stdev     0.478906                       (Unspecified)
system.caches.RequestType.ST.hit_latency_hist_seqr |    20942187    100.00%    100.00% |           0      0.00%    100.00% |           0      0.00%    100.00% |           0      0.00%    100.00% |           0      0.00%    100.00% |           1      0.00%    100.00% |           0      0.00%    100.00% |           0      0.00%    100.00% |           0      0.00%    100.00% |           0      0.00%    100.00% (Unspecified)
system.caches.RequestType.ST.hit_latency_hist_seqr::total     20942188                       (Unspecified)
system.caches.RequestType.ST.miss_latency_hist_seqr::bucket_size          256                       (Unspecified)
system.caches.RequestType.ST.miss_latency_hist_seqr::max_bucket         2559                       (Unspecified)
system.caches.RequestType.ST.miss_latency_hist_seqr::samples        17075                       (Unspecified)
system.caches.RequestType.ST.miss_latency_hist_seqr::mean    21.670981                       (Unspecified)
system.caches.RequestType.ST.miss_latency_hist_seqr::gmean    18.571429                       (Unspecified)
system.caches.RequestType.ST.miss_latency_hist_seqr::stdev    49.999940                       (Unspecified)
system.caches.RequestType.ST.miss_latency_hist_seqr |       16966     99.36%     99.36% |          68      0.40%     99.76% |          21      0.12%     99.88% |           8      0.05%     99.93% |           7      0.04%     99.97% |           2      0.01%     99.98% |           3      0.02%    100.00% |           0      0.00%    100.00% |           0      0.00%    100.00% |           0      0.00%    100.00% (Unspecified)
system.caches.RequestType.ST.miss_latency_hist_seqr::total        17075                       (Unspecified)
system.caches.RequestType.IFETCH.latency_hist_seqr::bucket_size          256                       (Unspecified)
system.caches.RequestType.IFETCH.latency_hist_seqr::max_bucket         2559                       (Unspecified)
system.caches.RequestType.IFETCH.latency_hist_seqr::samples     86796200                       (Unspecified)
system.caches.RequestType.IFETCH.latency_hist_seqr::mean     1.001579                       (Unspecified)
system.caches.RequestType.IFETCH.latency_hist_seqr::gmean     1.000126                       (Unspecified)
system.caches.RequestType.IFETCH.latency_hist_seqr::stdev     0.659095                       (Unspecified)
system.caches.RequestType.IFETCH.latency_hist_seqr |    86795992    100.00%    100.00% |         199      0.00%    100.00% |           3      0.00%    100.00% |           2      0.00%    100.00% |           1      0.00%    100.00% |           2      0.00%    100.00% |           0      0.00%    100.00% |           0      0.00%    100.00% |           1      0.00%    100.00% |           0      0.00%    100.00% (Unspecified)
system.caches.RequestType.IFETCH.latency_hist_seqr::total     86796200                       (Unspecified)
system.caches.RequestType.IFETCH.hit_latency_hist_seqr::bucket_size            1                       (Unspecified)
system.caches.RequestType.IFETCH.hit_latency_hist_seqr::max_bucket            9                       (Unspecified)
system.caches.RequestType.IFETCH.hit_latency_hist_seqr::samples     86792335                       (Unspecified)
system.caches.RequestType.IFETCH.hit_latency_hist_seqr::mean            1                       (Unspecified)
system.caches.RequestType.IFETCH.hit_latency_hist_seqr::gmean            1                       (Unspecified)
system.caches.RequestType.IFETCH.hit_latency_hist_seqr |           0      0.00%      0.00% |    86792335    100.00%    100.00% |           0      0.00%    100.00% |           0      0.00%    100.00% |           0      0.00%    100.00% |           0      0.00%    100.00% |           0      0.00%    100.00% |           0      0.00%    100.00% |           0      0.00%    100.00% |           0      0.00%    100.00% (Unspecified)
system.caches.RequestType.IFETCH.hit_latency_hist_seqr::total     86792335                       (Unspecified)
system.caches.RequestType.IFETCH.miss_latency_hist_seqr::bucket_size          256                       (Unspecified)
system.caches.RequestType.IFETCH.miss_latency_hist_seqr::max_bucket         2559                       (Unspecified)
system.caches.RequestType.IFETCH.miss_latency_hist_seqr::samples         3865                       (Unspecified)
system.caches.RequestType.IFETCH.miss_latency_hist_seqr::mean    36.462872                       (Unspecified)
system.caches.RequestType.IFETCH.miss_latency_hist_seqr::gmean    16.819075                       (Unspecified)
system.caches.RequestType.IFETCH.miss_latency_hist_seqr::stdev    92.195937                       (Unspecified)
system.caches.RequestType.IFETCH.miss_latency_hist_seqr |        3657     94.62%     94.62% |         199      5.15%     99.77% |           3      0.08%     99.84% |           2      0.05%     99.90% |           1      0.03%     99.92% |           2      0.05%     99.97% |           0      0.00%     99.97% |           0      0.00%     99.97% |           1      0.03%    100.00% |           0      0.00%    100.00% (Unspecified)
system.caches.RequestType.IFETCH.miss_latency_hist_seqr::total         3865                       (Unspecified)
system.caches.RequestType.RMW_Read.latency_hist_seqr::bucket_size          256                       (Unspecified)
system.caches.RequestType.RMW_Read.latency_hist_seqr::max_bucket         2559                       (Unspecified)
system.caches.RequestType.RMW_Read.latency_hist_seqr::samples        14922                       (Unspecified)
system.caches.RequestType.RMW_Read.latency_hist_seqr::mean     3.914355                       (Unspecified)
system.caches.RequestType.RMW_Read.latency_hist_seqr::gmean     1.359945                       (Unspecified)
system.caches.RequestType.RMW_Read.latency_hist_seqr::stdev    37.955269                       (Unspecified)
system.caches.RequestType.RMW_Read.latency_hist_seqr |       14879     99.71%     99.71% |          17      0.11%     99.83% |          17      0.11%     99.94% |           5      0.03%     99.97% |           3      0.02%     99.99% |           0      0.00%     99.99% |           0      0.00%     99.99% |           1      0.01%    100.00% |           0      0.00%    100.00% |           0      0.00%    100.00% (Unspecified)
system.caches.RequestType.RMW_Read.latency_hist_seqr::total        14922                       (Unspecified)
system.caches.RequestType.RMW_Read.hit_latency_hist_seqr::bucket_size            4                       (Unspecified)
system.caches.RequestType.RMW_Read.hit_latency_hist_seqr::max_bucket           39                       (Unspecified)
system.caches.RequestType.RMW_Read.hit_latency_hist_seqr::samples        14200                       (Unspecified)
system.caches.RequestType.RMW_Read.hit_latency_hist_seqr::mean     1.286056                       (Unspecified)
system.caches.RequestType.RMW_Read.hit_latency_hist_seqr::gmean     1.178178                       (Unspecified)
system.caches.RequestType.RMW_Read.hit_latency_hist_seqr::stdev     1.209805                       (Unspecified)
system.caches.RequestType.RMW_Read.hit_latency_hist_seqr |       14153     99.67%     99.67% |           3      0.02%     99.69% |           1      0.01%     99.70% |           2      0.01%     99.71% |           6      0.04%     99.75% |          27      0.19%     99.94% |           6      0.04%     99.99% |           2      0.01%    100.00% |           0      0.00%    100.00% |           0      0.00%    100.00% (Unspecified)
system.caches.RequestType.RMW_Read.hit_latency_hist_seqr::total        14200                       (Unspecified)
system.caches.RequestType.RMW_Read.miss_latency_hist_seqr::bucket_size          256                       (Unspecified)
system.caches.RequestType.RMW_Read.miss_latency_hist_seqr::max_bucket         2559                       (Unspecified)
system.caches.RequestType.RMW_Read.miss_latency_hist_seqr::samples          722                       (Unspecified)
system.caches.RequestType.RMW_Read.miss_latency_hist_seqr::mean    55.606648                       (Unspecified)
system.caches.RequestType.RMW_Read.miss_latency_hist_seqr::gmean    22.856945                       (Unspecified)
system.caches.RequestType.RMW_Read.miss_latency_hist_seqr::stdev   164.232770                       (Unspecified)
system.caches.RequestType.RMW_Read.miss_latency_hist_seqr |         679     94.04%     94.04% |          17      2.35%     96.40% |          17      2.35%     98.75% |           5      0.69%     99.45% |           3      0.42%     99.86% |           0      0.00%     99.86% |           0      0.00%     99.86% |           1      0.14%    100.00% |           0      0.00%    100.00% |           0      0.00%    100.00% (Unspecified)
system.caches.RequestType.RMW_Read.miss_latency_hist_seqr::total          722                       (Unspecified)
system.caches.RequestType.Locked_RMW_Read.latency_hist_seqr::bucket_size          128                       (Unspecified)
system.caches.RequestType.Locked_RMW_Read.latency_hist_seqr::max_bucket         1279                       (Unspecified)
system.caches.RequestType.Locked_RMW_Read.latency_hist_seqr::samples         5137                       (Unspecified)
system.caches.RequestType.Locked_RMW_Read.latency_hist_seqr::mean     2.502044                       (Unspecified)
system.caches.RequestType.Locked_RMW_Read.latency_hist_seqr::gmean     1.131019                       (Unspecified)
system.caches.RequestType.Locked_RMW_Read.latency_hist_seqr::stdev    28.207592                       (Unspecified)
system.caches.RequestType.Locked_RMW_Read.latency_hist_seqr |        5132     99.90%     99.90% |           0      0.00%     99.90% |           1      0.02%     99.92% |           0      0.00%     99.92% |           1      0.02%     99.94% |           0      0.00%     99.94% |           0      0.00%     99.94% |           0      0.00%     99.94% |           3      0.06%    100.00% |           0      0.00%    100.00% (Unspecified)
system.caches.RequestType.Locked_RMW_Read.latency_hist_seqr::total         5137                       (Unspecified)
system.caches.RequestType.Locked_RMW_Read.hit_latency_hist_seqr::bucket_size            1                       (Unspecified)
system.caches.RequestType.Locked_RMW_Read.hit_latency_hist_seqr::max_bucket            9                       (Unspecified)
system.caches.RequestType.Locked_RMW_Read.hit_latency_hist_seqr::samples         4923                       (Unspecified)
system.caches.RequestType.Locked_RMW_Read.hit_latency_hist_seqr::mean            1                       (Unspecified)
system.caches.RequestType.Locked_RMW_Read.hit_latency_hist_seqr::gmean            1                       (Unspecified)
system.caches.RequestType.Locked_RMW_Read.hit_latency_hist_seqr |           0      0.00%      0.00% |        4923    100.00%    100.00% |           0      0.00%    100.00% |           0      0.00%    100.00% |           0      0.00%    100.00% |           0      0.00%    100.00% |           0      0.00%    100.00% |           0      0.00%    100.00% |           0      0.00%    100.00% |           0      0.00%    100.00% (Unspecified)
system.caches.RequestType.Locked_RMW_Read.hit_latency_hist_seqr::total         4923                       (Unspecified)
system.caches.RequestType.Locked_RMW_Read.miss_latency_hist_seqr::bucket_size          128                       (Unspecified)
system.caches.RequestType.Locked_RMW_Read.miss_latency_hist_seqr::max_bucket         1279                       (Unspecified)
system.caches.RequestType.Locked_RMW_Read.miss_latency_hist_seqr::samples          214                       (Unspecified)
system.caches.RequestType.Locked_RMW_Read.miss_latency_hist_seqr::mean    37.056075                       (Unspecified)
system.caches.RequestType.Locked_RMW_Read.miss_latency_hist_seqr::gmean    19.209903                       (Unspecified)
system.caches.RequestType.Locked_RMW_Read.miss_latency_hist_seqr::stdev   133.917733                       (Unspecified)
system.caches.RequestType.Locked_RMW_Read.miss_latency_hist_seqr |         209     97.66%     97.66% |           0      0.00%     97.66% |           1      0.47%     98.13% |           0      0.00%     98.13% |           1      0.47%     98.60% |           0      0.00%     98.60% |           0      0.00%     98.60% |           0      0.00%     98.60% |           3      1.40%    100.00% |           0      0.00%    100.00% (Unspecified)
system.caches.RequestType.Locked_RMW_Read.miss_latency_hist_seqr::total          214                       (Unspecified)
system.caches.RequestType.Locked_RMW_Write.latency_hist_seqr::bucket_size            1                       (Unspecified)
system.caches.RequestType.Locked_RMW_Write.latency_hist_seqr::max_bucket            9                       (Unspecified)
system.caches.RequestType.Locked_RMW_Write.latency_hist_seqr::samples         5137                       (Unspecified)
system.caches.RequestType.Locked_RMW_Write.latency_hist_seqr::mean            1                       (Unspecified)
system.caches.RequestType.Locked_RMW_Write.latency_hist_seqr::gmean            1                       (Unspecified)
system.caches.RequestType.Locked_RMW_Write.latency_hist_seqr |           0      0.00%      0.00% |        5137    100.00%    100.00% |           0      0.00%    100.00% |           0      0.00%    100.00% |           0      0.00%    100.00% |           0      0.00%    100.00% |           0      0.00%    100.00% |           0      0.00%    100.00% |           0      0.00%    100.00% |           0      0.00%    100.00% (Unspecified)
system.caches.RequestType.Locked_RMW_Write.latency_hist_seqr::total         5137                       (Unspecified)
system.caches.RequestType.Locked_RMW_Write.hit_latency_hist_seqr::bucket_size            1                       (Unspecified)
system.caches.RequestType.Locked_RMW_Write.hit_latency_hist_seqr::max_bucket            9                       (Unspecified)
system.caches.RequestType.Locked_RMW_Write.hit_latency_hist_seqr::samples         5137                       (Unspecified)
system.caches.RequestType.Locked_RMW_Write.hit_latency_hist_seqr::mean            1                       (Unspecified)
system.caches.RequestType.Locked_RMW_Write.hit_latency_hist_seqr::gmean            1                       (Unspecified)
system.caches.RequestType.Locked_RMW_Write.hit_latency_hist_seqr |           0      0.00%      0.00% |        5137    100.00%    100.00% |           0      0.00%    100.00% |           0      0.00%    100.00% |           0      0.00%    100.00% |           0      0.00%    100.00% |           0      0.00%    100.00% |           0      0.00%    100.00% |           0      0.00%    100.00% |           0      0.00%    100.00% (Unspecified)
system.caches.RequestType.Locked_RMW_Write.hit_latency_hist_seqr::total         5137                       (Unspecified)
system.caches.controllers0.fullyBusyCycles          898                       # cycles for which number of transistions == max transitions (Unspecified)
system.caches.controllers0.delayHistogram::samples        35857                       # delay_histogram (Unspecified)
system.caches.controllers0.delayHistogram::mean     0.187690                       # delay_histogram (Unspecified)
system.caches.controllers0.delayHistogram::stdev     1.268206                       # delay_histogram (Unspecified)
system.caches.controllers0.delayHistogram::0-7        35734     99.66%     99.66% # delay_histogram (Unspecified)
system.caches.controllers0.delayHistogram::8-15           65      0.18%     99.84% # delay_histogram (Unspecified)
system.caches.controllers0.delayHistogram::16-23           41      0.11%     99.95% # delay_histogram (Unspecified)
system.caches.controllers0.delayHistogram::24-31           11      0.03%     99.98% # delay_histogram (Unspecified)
system.caches.controllers0.delayHistogram::32-39            2      0.01%     99.99% # delay_histogram (Unspecified)
system.caches.controllers0.delayHistogram::40-47            2      0.01%     99.99% # delay_histogram (Unspecified)
system.caches.controllers0.delayHistogram::48-55            1      0.00%    100.00% # delay_histogram (Unspecified)
system.caches.controllers0.delayHistogram::56-63            1      0.00%    100.00% # delay_histogram (Unspecified)
system.caches.controllers0.delayHistogram::total        35857                       # delay_histogram (Unspecified)
system.caches.controllers0.L1Dcache.m_demand_hits        70917                       # Number of cache demand hits (Unspecified)
system.caches.controllers0.L1Dcache.m_demand_misses       123238                       # Number of cache demand misses (Unspecified)
system.caches.controllers0.L1Dcache.m_demand_accesses       194155                       # Number of cache demand accesses (Unspecified)
system.caches.controllers0.L1Icache.m_demand_hits        30974                       # Number of cache demand hits (Unspecified)
system.caches.controllers0.L1Icache.m_demand_misses         1036                       # Number of cache demand misses (Unspecified)
system.caches.controllers0.L1Icache.m_demand_accesses        32010                       # Number of cache demand accesses (Unspecified)
system.caches.controllers0.mandatoryQueue.m_msg_count       226165                       # Number of messages passed the buffer (Count)
system.caches.controllers0.mandatoryQueue.m_buf_msgs     0.000000                       # Average number of messages in buffer ((Count/Tick))
system.caches.controllers0.mandatoryQueue.m_stall_time        17600                       # Total number of ticks messages were stalled in this buffer (Tick)
system.caches.controllers0.mandatoryQueue.m_avg_stall_time     0.077819                       # Average stall ticks per message ((Tick/Count))
system.caches.controllers0.power_state.pwrStateResidencyTicks::UNDEFINED  59326439200                       # Cumulative time (in ticks) in various power states (Tick)
system.caches.controllers0.prefetcher.RubyPrefetcher.numMissObserved            0                       # Number of misses observed (Unspecified)
system.caches.controllers0.prefetcher.RubyPrefetcher.numAllocatedStreams            0                       # Number of streams allocated for prefetching (Unspecified)
system.caches.controllers0.prefetcher.RubyPrefetcher.numPrefetchRequested            0                       # Number of prefetch requests made (Unspecified)
system.caches.controllers0.prefetcher.RubyPrefetcher.numHits            0                       # Number of prefetched blocks accessed (for the first time) (Unspecified)
system.caches.controllers0.prefetcher.RubyPrefetcher.numPartialHits            0                       # Number of misses observed for a block being prefetched (Unspecified)
system.caches.controllers0.prefetcher.RubyPrefetcher.numPagesCrossed            0                       # Number of prefetches across pages (Unspecified)
system.caches.controllers0.prefetcher.RubyPrefetcher.numMissedPrefetchedBlocks            0                       # Number of misses for blocks that were prefetched, yet missed (Unspecified)
[...]
system.o3Cpu7.fetch.nisnDist::1                  6460      3.96%     71.66% # Number of instructions fetched each cycle (Total) (Count)
system.o3Cpu7.fetch.nisnDist::2                  1505      0.92%     72.58% # Number of instructions fetched each cycle (Total) (Count)
system.o3Cpu7.fetch.nisnDist::3                  3602      2.21%     74.79% # Number of instructions fetched each cycle (Total) (Count)
system.o3Cpu7.fetch.nisnDist::4                  2690      1.65%     76.44% # Number of instructions fetched each cycle (Total) (Count)
system.o3Cpu7.fetch.nisnDist::5                 14687      9.00%     85.44% # Number of instructions fetched each cycle (Total) (Count)
system.o3Cpu7.fetch.nisnDist::6                  4123      2.53%     87.97% # Number of instructions fetched each cycle (Total) (Count)
system.o3Cpu7.fetch.nisnDist::7                  2059      1.26%     89.23% # Number of instructions fetched each cycle (Total) (Count)
system.o3Cpu7.fetch.nisnDist::8                  1218      0.75%     89.98% # Number of instructions fetched each cycle (Total) (Count)
system.o3Cpu7.fetch.nisnDist::9                  1270      0.78%     90.76% # Number of instructions fetched each cycle (Total) (Count)
system.o3Cpu7.fetch.nisnDist::10                 1304      0.80%     91.55% # Number of instructions fetched each cycle (Total) (Count)
system.o3Cpu7.fetch.nisnDist::11                 1483      0.91%     92.46% # Number of instructions fetched each cycle (Total) (Count)
system.o3Cpu7.fetch.nisnDist::12                 1368      0.84%     93.30% # Number of instructions fetched each cycle (Total) (Count)
system.o3Cpu7.fetch.nisnDist::13                 1192      0.73%     94.03% # Number of instructions fetched each cycle (Total) (Count)
system.o3Cpu7.fetch.nisnDist::14                  826      0.51%     94.54% # Number of instructions fetched each cycle (Total) (Count)
system.o3Cpu7.fetch.nisnDist::15                  773      0.47%     95.01% # Number of instructions fetched each cycle (Total) (Count)
system.o3Cpu7.fetch.nisnDist::16                 8138      4.99%    100.00% # Number of instructions fetched each cycle (Total) (Count)
system.o3Cpu7.fetch.nisnDist::overflows             0      0.00%    100.00% # Number of instructions fetched each cycle (Total) (Count)
system.o3Cpu7.fetch.nisnDist::min_value             0                       # Number of instructions fetched each cycle (Total) (Count)
system.o3Cpu7.fetch.nisnDist::max_value            16                       # Number of instructions fetched each cycle (Total) (Count)
system.o3Cpu7.fetch.nisnDist::total            163161                       # Number of instructions fetched each cycle (Total) (Count)
system.o3Cpu7.fetch.branchRate               0.295045                       # Number of branch fetches per cycle (Ratio)
system.o3Cpu7.fetch.rate                     1.003837                       # Number of inst fetches per cycle ((Count/Cycle))
system.o3Cpu7.iew.idleCycles                        0                       # Number of cycles IEW is idle (Cycle)
system.o3Cpu7.iew.squashCycles                   1922                       # Number of cycles IEW is squashing (Cycle)
system.o3Cpu7.iew.blockCycles                    3016                       # Number of cycles IEW is blocking (Cycle)
system.o3Cpu7.iew.unblockCycles                    63                       # Number of cycles IEW is unblocking (Cycle)
system.o3Cpu7.iew.dispatchedInsts              271205                       # Number of instructions dispatched to IQ (Count)
system.o3Cpu7.iew.dispSquashedInsts               388                       # Number of squashed instructions skipped by dispatch (Count)
system.o3Cpu7.iew.dispLoadInsts                 39310                       # Number of dispatched load instructions (Count)
system.o3Cpu7.iew.dispStoreInsts                22986                       # Number of dispatched store instructions (Count)
system.o3Cpu7.iew.dispNonSpecInsts               2720                       # Number of dispatched non-speculative instructions (Count)
system.o3Cpu7.iew.iqFullEvents                     44                       # Number of times the IQ has become full, causing a stall (Count)
system.o3Cpu7.iew.lsqFullEvents                     0                       # Number of times the LSQ has become full, causing a stall (Count)
system.o3Cpu7.iew.memOrderViolationEvents          481                       # Number of memory order violations (Count)
system.o3Cpu7.iew.predictedTakenIncorrect          643                       # Number of branches that were predicted taken incorrectly (Count)
system.o3Cpu7.iew.predictedNotTakenIncorrect          769                       # Number of branches that were predicted not taken incorrectly (Count)
system.o3Cpu7.iew.branchMispredicts              1412                       # Number of branch mispredicts detected at execute (Count)
system.o3Cpu7.iew.instsToCommit                250774                       # Cumulative count of insts sent to commit (Count)
system.o3Cpu7.iew.writebackCount               250450                       # Cumulative count of insts written-back (Count)
system.o3Cpu7.iew.producerInst                 174187                       # Number of instructions producing a value (Count)
system.o3Cpu7.iew.consumerInst                 298735                       # Number of instructions consuming a value (Count)
system.o3Cpu7.iew.wbRate                     1.532751                       # Insts written-back per cycle ((Count/Cycle))
system.o3Cpu7.iew.wbFanout                   0.583082                       # Average fanout of values written-back ((Count/Count))
system.o3Cpu7.interrupts.clk_domain.clock         3200                       # Clock period in ticks (Tick)
system.o3Cpu7.lsq0.forwLoads                     5727                       # Number of loads that had data forwarded from stores (Count)
system.o3Cpu7.lsq0.squashedLoads                 5968                       # Number of loads squashed (Count)
system.o3Cpu7.lsq0.ignoredResponses                17                       # Number of memory responses ignored because the instruction is squashed (Count)
system.o3Cpu7.lsq0.memOrderViolation              481                       # Number of memory ordering violations (Count)
system.o3Cpu7.lsq0.squashedStores                4151                       # Number of stores squashed (Count)
system.o3Cpu7.lsq0.rescheduledLoads                93                       # Number of loads that were rescheduled (Count)
system.o3Cpu7.lsq0.blockedByCache                   0                       # Number of times an access to memory failed due to the cache being blocked (Count)
system.o3Cpu7.lsq0.loadToUse::samples           33342                       # Distribution of cycle latency between the first time a load is issued and its completion (Unspecified)
system.o3Cpu7.lsq0.loadToUse::mean           3.681063                       # Distribution of cycle latency between the first time a load is issued and its completion (Unspecified)
system.o3Cpu7.lsq0.loadToUse::stdev         19.154698                       # Distribution of cycle latency between the first time a load is issued and its completion (Unspecified)
system.o3Cpu7.lsq0.loadToUse::0-9               32571     97.69%     97.69% # Distribution of cycle latency between the first time a load is issued and its completion (Unspecified)
system.o3Cpu7.lsq0.loadToUse::10-19               508      1.52%     99.21% # Distribution of cycle latency between the first time a load is issued and its completion (Unspecified)
system.o3Cpu7.lsq0.loadToUse::20-29               168      0.50%     99.72% # Distribution of cycle latency between the first time a load is issued and its completion (Unspecified)
system.o3Cpu7.lsq0.loadToUse::30-39                66      0.20%     99.91% # Distribution of cycle latency between the first time a load is issued and its completion (Unspecified)
system.o3Cpu7.lsq0.loadToUse::90-99                 2      0.01%     99.92% # Distribution of cycle latency between the first time a load is issued and its completion (Unspecified)
system.o3Cpu7.lsq0.loadToUse::100-109               2      0.01%     99.93% # Distribution of cycle latency between the first time a load is issued and its completion (Unspecified)
system.o3Cpu7.lsq0.loadToUse::260-269               1      0.00%     99.93% # Distribution of cycle latency between the first time a load is issued and its completion (Unspecified)
system.o3Cpu7.lsq0.loadToUse::overflows            24      0.07%    100.00% # Distribution of cycle latency between the first time a load is issued and its completion (Unspecified)
system.o3Cpu7.lsq0.loadToUse::min_value             2                       # Distribution of cycle latency between the first time a load is issued and its completion (Unspecified)
system.o3Cpu7.lsq0.loadToUse::max_value          1838                       # Distribution of cycle latency between the first time a load is issued and its completion (Unspecified)
system.o3Cpu7.lsq0.loadToUse::total             33342                       # Distribution of cycle latency between the first time a load is issued and its completion (Unspecified)
system.o3Cpu7.mmu.dtb.rdAccesses                37415                       # TLB accesses on read requests (Count)
system.o3Cpu7.mmu.dtb.wrAccesses                20340                       # TLB accesses on write requests (Count)
system.o3Cpu7.mmu.dtb.rdMisses                    152                       # TLB misses on read requests (Count)
system.o3Cpu7.mmu.dtb.wrMisses                      2                       # TLB misses on write requests (Count)
system.o3Cpu7.mmu.dtb.walker.power_state.pwrStateResidencyTicks::UNDEFINED  59326439200                       # Cumulative time (in ticks) in various power states (Tick)
system.o3Cpu7.mmu.itb.rdAccesses                    0                       # TLB accesses on read requests (Count)
system.o3Cpu7.mmu.itb.wrAccesses                25336                       # TLB accesses on write requests (Count)
system.o3Cpu7.mmu.itb.rdMisses                      0                       # TLB misses on read requests (Count)
system.o3Cpu7.mmu.itb.wrMisses                      6                       # TLB misses on write requests (Count)
system.o3Cpu7.mmu.itb.walker.power_state.pwrStateResidencyTicks::UNDEFINED  59326439200                       # Cumulative time (in ticks) in various power states (Tick)
system.o3Cpu7.power_state.numTransitions          118                       # Number of power state transitions (Count)
system.o3Cpu7.power_state.ticksClkGated::samples           59                       # Distribution of time spent in the clock gated state (Tick)
system.o3Cpu7.power_state.ticksClkGated::mean 984219518.644068                       # Distribution of time spent in the clock gated state (Tick)
system.o3Cpu7.power_state.ticksClkGated::stdev 116848790.212184                       # Distribution of time spent in the clock gated state (Tick)
system.o3Cpu7.power_state.ticksClkGated::1000-5e+10           59    100.00%    100.00% # Distribution of time spent in the clock gated state (Tick)
system.o3Cpu7.power_state.ticksClkGated::min_value    101901000                       # Distribution of time spent in the clock gated state (Tick)
system.o3Cpu7.power_state.ticksClkGated::max_value    999527400                       # Distribution of time spent in the clock gated state (Tick)
system.o3Cpu7.power_state.ticksClkGated::total           59                       # Distribution of time spent in the clock gated state (Tick)
system.o3Cpu7.power_state.pwrStateResidencyTicks::ON     32668000                       # Cumulative time (in ticks) in various power states (Tick)
system.o3Cpu7.power_state.pwrStateResidencyTicks::CLK_GATED  58068951600                       # Cumulative time (in ticks) in various power states (Tick)
system.o3Cpu7.power_state.pwrStateResidencyTicks::OFF   1224819600                       # Cumulative time (in ticks) in various power states (Tick)
system.o3Cpu7.rename.squashCycles                1922                       # Number of cycles rename is squashing (Cycle)
system.o3Cpu7.rename.idleCycles                 30466                       # Number of cycles rename is idle (Cycle)
system.o3Cpu7.rename.blockCycles                 3578                       # Number of cycles rename is blocking (Cycle)
system.o3Cpu7.rename.serializeStallCycles        93247                       # count of cycles rename stalled for serializing inst (Cycle)
system.o3Cpu7.rename.runCycles                  30035                       # Number of cycles rename is running (Cycle)
system.o3Cpu7.rename.unblockCycles               3908                       # Number of cycles rename is unblocking (Cycle)
system.o3Cpu7.rename.renamedInsts              276145                       # Number of instructions processed by rename (Count)
system.o3Cpu7.rename.IQFullEvents                1788                       # Number of times rename has blocked due to IQ full (Count)
system.o3Cpu7.rename.LQFullEvents                   2                       # Number of times rename has blocked due to LQ full (Count)
system.o3Cpu7.rename.SQFullEvents                  66                       # Number of times rename has blocked due to SQ full (Count)
system.o3Cpu7.rename.renamedOperands           400848                       # Number of destination operands rename has renamed (Count)
system.o3Cpu7.rename.lookups                   832757                       # Number of register rename lookups that rename has made (Count)
system.o3Cpu7.rename.intLookups                336163                       # Number of integer rename lookups (Count)
system.o3Cpu7.rename.committedMaps             327851                       # Number of HB maps that are committed (Count)
system.o3Cpu7.rename.undoneMaps                 72997                       # Number of HB maps that are undone due to squashing (Count)
system.o3Cpu7.rename.serializing                 2676                       # count of serializing insts renamed (Count)
system.o3Cpu7.rename.tempSerializing             2684                       # count of temporary serializing insts renamed (Count)
system.o3Cpu7.rename.skidInsts                  37297                       # count of insts added to the skid buffer (Count)
system.o3Cpu7.rob.reads                        423272                       # The number of ROB reads (Count)
system.o3Cpu7.rob.writes                       542096                       # The number of ROB writes (Count)
system.o3Cpu7.thread_0.numInsts                 95981                       # Number of Instructions committed (Count)
system.o3Cpu7.thread_0.numOps                  225394                       # Number of Ops committed (Count)
system.o3Cpu7.thread_0.numMemRefs                   0                       # Number of Memory References (Count)
system.pc.bad_addr.power_state.pwrStateResidencyTicks::UNDEFINED  59326439200                       # Cumulative time (in ticks) in various power states (Tick)
system.pc.com_1.power_state.pwrStateResidencyTicks::UNDEFINED  59326439200                       # Cumulative time (in ticks) in various power states (Tick)
system.pc.default_bus.power_state.pwrStateResidencyTicks::UNDEFINED  59326439200                       # Cumulative time (in ticks) in various power states (Tick)
system.pc.empty_isa.power_state.pwrStateResidencyTicks::UNDEFINED  59326439200                       # Cumulative time (in ticks) in various power states (Tick)
system.pc.fake_com_2.power_state.pwrStateResidencyTicks::UNDEFINED  59326439200                       # Cumulative time (in ticks) in various power states (Tick)
system.pc.fake_com_3.power_state.pwrStateResidencyTicks::UNDEFINED  59326439200                       # Cumulative time (in ticks) in various power states (Tick)
system.pc.fake_com_4.power_state.pwrStateResidencyTicks::UNDEFINED  59326439200                       # Cumulative time (in ticks) in various power states (Tick)
system.pc.fake_floppy.power_state.pwrStateResidencyTicks::UNDEFINED  59326439200                       # Cumulative time (in ticks) in various power states (Tick)
system.pc.pci_host.power_state.pwrStateResidencyTicks::UNDEFINED  59326439200                       # Cumulative time (in ticks) in various power states (Tick)
system.pc.south_bridge.cmos.power_state.pwrStateResidencyTicks::UNDEFINED  59326439200                       # Cumulative time (in ticks) in various power states (Tick)
system.pc.south_bridge.dma1.power_state.pwrStateResidencyTicks::UNDEFINED  59326439200                       # Cumulative time (in ticks) in various power states (Tick)
system.pc.south_bridge.ide.disks0.IdeDisk.dmaReadFullPages            0                       # Number of full page size DMA reads (not PRD). (Count)
system.pc.south_bridge.ide.disks0.IdeDisk.dmaReadBytes            0                       # Number of bytes transfered via DMA reads (not PRD). (Byte)
system.pc.south_bridge.ide.disks0.IdeDisk.dmaReadTxs            0                       # Number of DMA read transactions (not PRD). (Count)
system.pc.south_bridge.ide.disks0.IdeDisk.dmaWriteFullPages            0                       # Number of full page size DMA writes. (Count)
system.pc.south_bridge.ide.disks0.IdeDisk.dmaWriteBytes            0                       # Number of bytes transfered via DMA writes. (Byte)
system.pc.south_bridge.ide.disks0.IdeDisk.dmaWriteTxs            0                       # Number of DMA write transactions. (Count)
system.pc.south_bridge.ide.disks1.IdeDisk.dmaReadFullPages            0                       # Number of full page size DMA reads (not PRD). (Count)
system.pc.south_bridge.ide.disks1.IdeDisk.dmaReadBytes            0                       # Number of bytes transfered via DMA reads (not PRD). (Byte)
system.pc.south_bridge.ide.disks1.IdeDisk.dmaReadTxs            0                       # Number of DMA read transactions (not PRD). (Count)
system.pc.south_bridge.ide.disks1.IdeDisk.dmaWriteFullPages            0                       # Number of full page size DMA writes. (Count)
system.pc.south_bridge.ide.disks1.IdeDisk.dmaWriteBytes            0                       # Number of bytes transfered via DMA writes. (Byte)
system.pc.south_bridge.ide.disks1.IdeDisk.dmaWriteTxs            0                       # Number of DMA write transactions. (Count)
system.pc.south_bridge.ide.power_state.pwrStateResidencyTicks::UNDEFINED  59326439200                       # Cumulative time (in ticks) in various power states (Tick)
system.pc.south_bridge.io_apic.power_state.pwrStateResidencyTicks::UNDEFINED  59326439200                       # Cumulative time (in ticks) in various power states (Tick)
system.pc.south_bridge.keyboard.power_state.pwrStateResidencyTicks::UNDEFINED  59326439200                       # Cumulative time (in ticks) in various power states (Tick)
system.pc.south_bridge.pic1.power_state.pwrStateResidencyTicks::UNDEFINED  59326439200                       # Cumulative time (in ticks) in various power states (Tick)
system.pc.south_bridge.pic2.power_state.pwrStateResidencyTicks::UNDEFINED  59326439200                       # Cumulative time (in ticks) in various power states (Tick)
system.pc.south_bridge.pit.power_state.pwrStateResidencyTicks::UNDEFINED  59326439200                       # Cumulative time (in ticks) in various power states (Tick)
system.pc.south_bridge.speaker.power_state.pwrStateResidencyTicks::UNDEFINED  59326439200                       # Cumulative time (in ticks) in various power states (Tick)
system.workload.inst.arm                            0                       # number of arm instructions executed (Count)
system.workload.inst.quiesce                        0                       # number of quiesce instructions executed (Count)

---------- End Simulation Statistics   ----------
