
---------- Begin Simulation Statistics ----------
simSeconds                                   0.053157                       # Number of seconds simulated (Second)
simTicks                                  53156618450                       # Number of ticks simulated (Tick)
finalTick                                562914578388800                       # Number of ticks from beginning of simulation (restored from checkpoints and never reset) (Tick)
simFreq                                  1000000000000                       # The number of ticks per simulated second ((Tick/Second))
hostSeconds                                   8382.53                       # Real time elapsed on the host (Second)
hostTickRate                                  6341361                       # The number of ticks simulated per host second (ticks/s) ((Tick/Second))
hostMemory                                   71767952                       # Number of bytes of host memory used (Byte)
simInsts                                    317428761                       # Number of instructions simulated (Count)
simOps                                      519301253                       # Number of ops (including micro ops) simulated (Count)
hostInstRate                                    37868                       # Simulator instruction rate (inst/s) ((Count/Second))
hostOpRate                                      61950                       # Simulator op (including micro ops) rate (op/s) ((Count/Second))
system.caches.delayHistogram::bucket_size          512                       # delay histogram for all message (Unspecified)
system.caches.delayHistogram::max_bucket         5119                       # delay histogram for all message (Unspecified)
system.caches.delayHistogram::samples        39720060                       # delay histogram for all message (Unspecified)
system.caches.delayHistogram::mean           0.396618                       # delay histogram for all message (Unspecified)
system.caches.delayHistogram::stdev          1.955947                       # delay histogram for all message (Unspecified)
system.caches.delayHistogram             |    39720051    100.00%    100.00% |           3      0.00%    100.00% |           2      0.00%    100.00% |           2      0.00%    100.00% |           1      0.00%    100.00% |           1      0.00%    100.00% |           0      0.00%    100.00% |           0      0.00%    100.00% |           0      0.00%    100.00% |           0      0.00%    100.00% # delay histogram for all message (Unspecified)
system.caches.delayHistogram::total          39720060                       # delay histogram for all message (Unspecified)
system.caches.m_outstandReqHistSeqr::bucket_size            2                       (Unspecified)
system.caches.m_outstandReqHistSeqr::max_bucket           19                       (Unspecified)
system.caches.m_outstandReqHistSeqr::samples    166449825                       (Unspecified)
system.caches.m_outstandReqHistSeqr::mean     2.405136                       (Unspecified)
system.caches.m_outstandReqHistSeqr::gmean     1.898940                       (Unspecified)
system.caches.m_outstandReqHistSeqr::stdev     1.942369                       (Unspecified)
system.caches.m_outstandReqHistSeqr      |    70561580     42.39%     42.39% |    64954504     39.02%     81.42% |    19494028     11.71%     93.13% |     6077137      3.65%     96.78% |     2891489      1.74%     98.52% |     1831181      1.10%     99.62% |      584040      0.35%     99.97% |       44382      0.03%     99.99% |       11484      0.01%    100.00% |           0      0.00%    100.00% (Unspecified)
system.caches.m_outstandReqHistSeqr::total    166449825                       (Unspecified)
system.caches.m_latencyHistSeqr::bucket_size          512                       (Unspecified)
system.caches.m_latencyHistSeqr::max_bucket         5119                       (Unspecified)
system.caches.m_latencyHistSeqr::samples    166497768                       (Unspecified)
system.caches.m_latencyHistSeqr::mean       17.384119                       (Unspecified)
system.caches.m_latencyHistSeqr::gmean       1.281766                       (Unspecified)
system.caches.m_latencyHistSeqr::stdev     116.822322                       (Unspecified)
system.caches.m_latencyHistSeqr          |   163605349     98.26%     98.26% |     2450360      1.47%     99.73% |      285197      0.17%     99.91% |      115613      0.07%     99.98% |       32645      0.02%     99.99% |        7603      0.00%    100.00% |         812      0.00%    100.00% |         167      0.00%    100.00% |          22      0.00%    100.00% |           0      0.00%    100.00% (Unspecified)
system.caches.m_latencyHistSeqr::total      166497768                       (Unspecified)
system.caches.m_hitLatencyHistSeqr::bucket_size          512                       (Unspecified)
system.caches.m_hitLatencyHistSeqr::max_bucket         5119                       (Unspecified)
system.caches.m_hitLatencyHistSeqr::samples    156209797                       (Unspecified)
system.caches.m_hitLatencyHistSeqr::mean     1.003385                       (Unspecified)
system.caches.m_hitLatencyHistSeqr::gmean     1.000490                       (Unspecified)
system.caches.m_hitLatencyHistSeqr::stdev     1.908344                       (Unspecified)
system.caches.m_hitLatencyHistSeqr       |   156209444    100.00%    100.00% |         197      0.00%    100.00% |          84      0.00%    100.00% |          41      0.00%    100.00% |          23      0.00%    100.00% |           8      0.00%    100.00% |           0      0.00%    100.00% |           0      0.00%    100.00% |           0      0.00%    100.00% |           0      0.00%    100.00% (Unspecified)
system.caches.m_hitLatencyHistSeqr::total    156209797                       (Unspecified)
system.caches.m_missLatencyHistSeqr::bucket_size          512                       (Unspecified)
system.caches.m_missLatencyHistSeqr::max_bucket         5119                       (Unspecified)
system.caches.m_missLatencyHistSeqr::samples     10287971                       (Unspecified)
system.caches.m_missLatencyHistSeqr::mean   266.104798                       (Unspecified)
system.caches.m_missLatencyHistSeqr::gmean    55.146312                       (Unspecified)
system.caches.m_missLatencyHistSeqr::stdev   393.541955                       (Unspecified)
system.caches.m_missLatencyHistSeqr      |     7395905     71.89%     71.89% |     2450163     23.82%     95.70% |      285113      2.77%     98.48% |      115572      1.12%     99.60% |       32622      0.32%     99.92% |        7595      0.07%     99.99% |         812      0.01%    100.00% |         167      0.00%    100.00% |          22      0.00%    100.00% |           0      0.00%    100.00% (Unspecified)
system.caches.m_missLatencyHistSeqr::total     10287971                       (Unspecified)
system.caches.delayVCHist.vnet_0::bucket_size          512                       # delay histogram for vnet_0 (Unspecified)
system.caches.delayVCHist.vnet_0::max_bucket         5119                       # delay histogram for vnet_0 (Unspecified)
system.caches.delayVCHist.vnet_0::samples     17725272                       # delay histogram for vnet_0 (Unspecified)
system.caches.delayVCHist.vnet_0::mean       0.355205                       # delay histogram for vnet_0 (Unspecified)
system.caches.delayVCHist.vnet_0::stdev      2.071913                       # delay histogram for vnet_0 (Unspecified)
system.caches.delayVCHist.vnet_0         |    17725263    100.00%    100.00% |           3      0.00%    100.00% |           2      0.00%    100.00% |           2      0.00%    100.00% |           1      0.00%    100.00% |           1      0.00%    100.00% |           0      0.00%    100.00% |           0      0.00%    100.00% |           0      0.00%    100.00% |           0      0.00%    100.00% # delay histogram for vnet_0 (Unspecified)
system.caches.delayVCHist.vnet_0::total      17725272                       # delay histogram for vnet_0 (Unspecified)
system.caches.delayVCHist.vnet_1::bucket_size            8                       # delay histogram for vnet_1 (Unspecified)
system.caches.delayVCHist.vnet_1::max_bucket           79                       # delay histogram for vnet_1 (Unspecified)
system.caches.delayVCHist.vnet_1::samples     21648890                       # delay histogram for vnet_1 (Unspecified)
system.caches.delayVCHist.vnet_1::mean       0.436854                       # delay histogram for vnet_1 (Unspecified)
system.caches.delayVCHist.vnet_1::stdev      1.870526                       # delay histogram for vnet_1 (Unspecified)
system.caches.delayVCHist.vnet_1         |    21184074     97.85%     97.85% |      394415      1.82%     99.67% |       62987      0.29%     99.97% |        6889      0.03%    100.00% |         506      0.00%    100.00% |          17      0.00%    100.00% |           2      0.00%    100.00% |           0      0.00%    100.00% |           0      0.00%    100.00% |           0      0.00%    100.00% # delay histogram for vnet_1 (Unspecified)
system.caches.delayVCHist.vnet_1::total      21648890                       # delay histogram for vnet_1 (Unspecified)
system.caches.delayVCHist.vnet_2::bucket_size            1                       # delay histogram for vnet_2 (Unspecified)
system.caches.delayVCHist.vnet_2::max_bucket            9                       # delay histogram for vnet_2 (Unspecified)
system.caches.delayVCHist.vnet_2::samples       345898                       # delay histogram for vnet_2 (Unspecified)
system.caches.delayVCHist.vnet_2::mean       0.000596                       # delay histogram for vnet_2 (Unspecified)
system.caches.delayVCHist.vnet_2::stdev      0.035498                       # delay histogram for vnet_2 (Unspecified)
system.caches.delayVCHist.vnet_2         |      345798     99.97%     99.97% |           0      0.00%     99.97% |          97      0.03%    100.00% |           0      0.00%    100.00% |           3      0.00%    100.00% |           0      0.00%    100.00% |           0      0.00%    100.00% |           0      0.00%    100.00% |           0      0.00%    100.00% |           0      0.00%    100.00% # delay histogram for vnet_2 (Unspecified)
system.caches.delayVCHist.vnet_2::total        345898                       # delay histogram for vnet_2 (Unspecified)
system.caches.L1Cache_Controller.Load    |    12341050     12.71%     12.71% |    12118214     12.48%     25.20% |    12439879     12.82%     38.01% |    12302195     12.67%     50.69% |    11137689     11.47%     62.16% |    12144429     12.51%     74.67% |    12189250     12.56%     87.23% |    12393563     12.77%    100.00% (Unspecified)
system.caches.L1Cache_Controller.Load::total     97066269                       (Unspecified)
system.caches.L1Cache_Controller.Ifetch  |     7068916     12.40%     12.40% |     7131270     12.51%     24.91% |     7071666     12.40%     37.31% |     7129070     12.51%     49.82% |     7201291     12.63%     62.45% |     7148761     12.54%     74.99% |     7173877     12.58%     87.57% |     7084507     12.43%    100.00% (Unspecified)
system.caches.L1Cache_Controller.Ifetch::total     57009358                       (Unspecified)
system.caches.L1Cache_Controller.Store   |     1517888     12.22%     12.22% |     1514210     12.19%     24.41% |     1504555     12.11%     36.52% |     1515908     12.20%     48.72% |     1818512     14.64%     63.36% |     1518630     12.23%     75.59% |     1523713     12.27%     87.85% |     1508734     12.15%    100.00% (Unspecified)
system.caches.L1Cache_Controller.Store::total     12422150                       (Unspecified)
system.caches.L1Cache_Controller.Inv     |       39066     13.37%     13.37% |       37912     12.98%     26.35% |       37836     12.95%     39.30% |       37369     12.79%     52.09% |       29338     10.04%     62.13% |       36341     12.44%     74.57% |       36884     12.62%     87.20% |       37408     12.80%    100.00% (Unspecified)
system.caches.L1Cache_Controller.Inv::total       292154                       (Unspecified)
system.caches.L1Cache_Controller.L1_Replacement |     1270279     12.44%     12.44% |     1269742     12.43%     24.87% |     1266993     12.40%     37.27% |     1271093     12.44%     49.71% |     1314534     12.87%     62.58% |     1274544     12.48%     75.06% |     1275482     12.49%     87.55% |     1271818     12.45%    100.00% (Unspecified)
system.caches.L1Cache_Controller.L1_Replacement::total     10214485                       (Unspecified)
system.caches.L1Cache_Controller.Fwd_GETX |        1332     15.28%     15.28% |         910     10.44%     25.72% |        1206     13.83%     39.55% |        1251     14.35%     53.90% |        1084     12.43%     66.33% |        1066     12.23%     78.56% |         904     10.37%     88.93% |         965     11.07%    100.00% (Unspecified)
system.caches.L1Cache_Controller.Fwd_GETX::total         8718                       (Unspecified)
system.caches.L1Cache_Controller.Fwd_GETS |        6615     14.69%     14.69% |        5884     13.07%     27.76% |        5494     12.20%     39.96% |        5391     11.97%     51.93% |        5588     12.41%     64.35% |        5360     11.90%     76.25% |        5418     12.03%     88.28% |        5276     11.72%    100.00% (Unspecified)
system.caches.L1Cache_Controller.Fwd_GETS::total        45026                       (Unspecified)
system.caches.L1Cache_Controller.Data    |          50      0.76%      0.76% |           3      0.05%      0.80% |           2      0.03%      0.83% |           3      0.05%      0.88% |        6544     99.05%     99.92% |           2      0.03%     99.95% |           2      0.03%     99.98% |           1      0.02%    100.00% (Unspecified)
system.caches.L1Cache_Controller.Data::total         6607                       (Unspecified)
system.caches.L1Cache_Controller.Data_Exclusive |      426448     12.45%     12.45% |      427577     12.49%     24.94% |      425679     12.43%     37.37% |      427553     12.48%     49.85% |      432230     12.62%     62.47% |      428914     12.52%     75.00% |      429464     12.54%     87.54% |      426738     12.46%    100.00% (Unspecified)
system.caches.L1Cache_Controller.Data_Exclusive::total      3424603                       (Unspecified)
system.caches.L1Cache_Controller.DataS_fromL1 |        5463     12.13%     12.13% |        6468     14.37%     26.50% |        5974     13.27%     39.77% |        5457     12.12%     51.89% |        5494     12.20%     64.09% |        5318     11.81%     75.90% |        5395     11.98%     87.88% |        5457     12.12%    100.00% (Unspecified)
system.caches.L1Cache_Controller.DataS_fromL1::total        45026                       (Unspecified)
system.caches.L1Cache_Controller.Data_all_Acks |      846723     12.44%     12.44% |      844024     12.40%     24.85% |      843980     12.40%     37.25% |      846602     12.44%     49.69% |      878272     12.91%     62.60% |      848554     12.47%     75.07% |      848742     12.47%     87.54% |      847839     12.46%    100.00% (Unspecified)
system.caches.L1Cache_Controller.Data_all_Acks::total      6804736                       (Unspecified)
system.caches.L1Cache_Controller.Ack     |        1633      2.88%      2.88% |         730      1.29%      4.17% |         648      1.14%      5.31% |         625      1.10%      6.41% |       51090     90.07%     96.48% |         660      1.16%     97.65% |         638      1.12%     98.77% |         697      1.23%    100.00% (Unspecified)
system.caches.L1Cache_Controller.Ack::total        56721                       (Unspecified)
system.caches.L1Cache_Controller.Ack_all |         906      6.66%      6.66% |         684      5.03%     11.69% |         616      4.53%     16.21% |         591      4.34%     20.56% |        8925     65.60%     86.15% |         627      4.61%     90.76% |         606      4.45%     95.22% |         651      4.78%    100.00% (Unspecified)
system.caches.L1Cache_Controller.Ack_all::total        13606                       (Unspecified)
system.caches.L1Cache_Controller.WB_Ack  |      452141     12.39%     12.39% |      451707     12.37%     24.76% |      448379     12.28%     37.04% |      451686     12.37%     49.41% |      490020     13.42%     62.84% |      453778     12.43%     75.27% |      454027     12.44%     87.70% |      448970     12.30%    100.00% (Unspecified)
system.caches.L1Cache_Controller.WB_Ack::total      3650708                       (Unspecified)
system.caches.L1Cache_Controller.NP.Load |     1229235     12.46%     12.46% |     1231134     12.48%     24.93% |     1228954     12.45%     37.38% |     1232454     12.49%     49.87% |     1240485     12.57%     62.44% |     1235725     12.52%     74.96% |     1236774     12.53%     87.50% |     1233841     12.50%    100.00% (Unspecified)
system.caches.L1Cache_Controller.NP.Load::total      9868602                       (Unspecified)
system.caches.L1Cache_Controller.NP.Ifetch |        7378     16.63%     16.63% |        4689     10.57%     27.20% |        4926     11.11%     38.31% |        4690     10.57%     48.88% |        8272     18.65%     67.53% |        4689     10.57%     78.10% |        4713     10.63%     88.73% |        4999     11.27%    100.00% (Unspecified)
system.caches.L1Cache_Controller.NP.Ifetch::total        44356                       (Unspecified)
system.caches.L1Cache_Controller.NP.Store |       33794     11.18%     11.18% |       34023     11.26%     22.44% |       33217     10.99%     33.42% |       34053     11.27%     44.69% |       65777     21.76%     66.45% |       34233     11.33%     77.78% |       34098     11.28%     89.06% |       33081     10.94%    100.00% (Unspecified)
system.caches.L1Cache_Controller.NP.Store::total       302276                       (Unspecified)
system.caches.L1Cache_Controller.NP.Inv  |       21788     13.26%     13.26% |       21008     12.78%     26.04% |       20845     12.69%     38.73% |       20874     12.70%     51.43% |       17079     10.39%     61.83% |       20894     12.72%     74.54% |       20937     12.74%     87.28% |       20900     12.72%    100.00% (Unspecified)
system.caches.L1Cache_Controller.NP.Inv::total       164325                       (Unspecified)
system.caches.L1Cache_Controller.I.Load  |        2172     11.85%     11.85% |        2407     13.13%     24.98% |        2481     13.53%     38.51% |        2363     12.89%     51.40% |        2187     11.93%     63.32% |        2233     12.18%     75.50% |        2228     12.15%     87.66% |        2263     12.34%    100.00% (Unspecified)
system.caches.L1Cache_Controller.I.Load::total        18334                       (Unspecified)
system.caches.L1Cache_Controller.I.Ifetch |        4906     12.35%     12.35% |        5057     12.73%     25.07% |        4967     12.50%     37.58% |        4957     12.48%     50.05% |        4861     12.23%     62.29% |        4986     12.55%     74.83% |        5012     12.61%     87.45% |        4987     12.55%    100.00% (Unspecified)
system.caches.L1Cache_Controller.I.Ifetch::total        39733                       (Unspecified)
system.caches.L1Cache_Controller.I.Store |        1198     15.61%     15.61% |         762      9.93%     25.53% |        1092     14.23%     39.76% |        1101     14.34%     54.10% |         959     12.49%     66.60% |         923     12.02%     78.62% |         777     10.12%     88.74% |         864     11.26%    100.00% (Unspecified)
system.caches.L1Cache_Controller.I.Store::total         7676                       (Unspecified)
system.caches.L1Cache_Controller.I.L1_Replacement |       10187     11.08%     11.08% |       11588     12.60%     23.68% |       12603     13.71%     37.39% |       12092     13.15%     50.54% |        9019      9.81%     60.34% |       11551     12.56%     72.91% |       11702     12.73%     85.63% |       13212     14.37%    100.00% (Unspecified)
system.caches.L1Cache_Controller.I.L1_Replacement::total        91954                       (Unspecified)
system.caches.L1Cache_Controller.S.Load  |     7375623     12.90%     12.90% |     7148513     12.50%     25.40% |     7465818     13.06%     38.45% |     7331252     12.82%     51.27% |     6105928     10.68%     61.95% |     7159837     12.52%     74.47% |     7190765     12.57%     87.04% |     7408997     12.96%    100.00% (Unspecified)
system.caches.L1Cache_Controller.S.Load::total     57186733                       (Unspecified)
system.caches.L1Cache_Controller.S.Ifetch |     7056632     12.40%     12.40% |     7121524     12.51%     24.91% |     7061773     12.41%     37.31% |     7119423     12.51%     49.82% |     7188158     12.63%     62.45% |     7139086     12.54%     74.99% |     7164152     12.59%     87.57% |     7074521     12.43%    100.00% (Unspecified)
system.caches.L1Cache_Controller.S.Ifetch::total     56925269                       (Unspecified)
system.caches.L1Cache_Controller.S.Store |         858     12.25%     12.25% |         681      9.72%     21.98% |         614      8.77%     30.74% |         588      8.40%     39.14% |        2381     34.00%     73.14% |         625      8.92%     82.06% |         605      8.64%     90.70% |         651      9.30%    100.00% (Unspecified)
system.caches.L1Cache_Controller.S.Store::total         7003                       (Unspecified)
system.caches.L1Cache_Controller.S.Inv   |       13226     13.45%     13.45% |       12674     12.89%     26.33% |       12703     12.92%     39.25% |       12586     12.80%     52.04% |        9645      9.81%     61.85% |       12507     12.72%     74.57% |       12548     12.76%     87.32% |       12468     12.68%    100.00% (Unspecified)
system.caches.L1Cache_Controller.S.Inv::total        98357                       (Unspecified)
system.caches.L1Cache_Controller.S.L1_Replacement |      807951     12.48%     12.48% |      806447     12.46%     24.95% |      806011     12.45%     37.40% |      807315     12.47%     49.87% |      815495     12.60%     62.47% |      809215     12.50%     74.98% |      809753     12.51%     87.49% |      809636     12.51%    100.00% (Unspecified)
system.caches.L1Cache_Controller.S.L1_Replacement::total      6471823                       (Unspecified)
system.caches.L1Cache_Controller.E.Load  |     3055696     12.43%     12.43% |     3067715     12.47%     24.90% |     3072801     12.50%     37.40% |     3065947     12.47%     49.86% |     3088094     12.56%     62.42% |     3077110     12.51%     74.93% |     3086460     12.55%     87.48% |     3077646     12.52%    100.00% (Unspecified)
system.caches.L1Cache_Controller.E.Load::total     24591469                       (Unspecified)
system.caches.L1Cache_Controller.E.Store |       43297     12.43%     12.43% |       42938     12.33%     24.76% |       43086     12.37%     37.13% |       43169     12.39%     49.52% |       46186     13.26%     62.78% |       43145     12.39%     75.17% |       43321     12.44%     87.60% |       43182     12.40%    100.00% (Unspecified)
system.caches.L1Cache_Controller.E.Store::total       348324                       (Unspecified)
system.caches.L1Cache_Controller.E.Inv   |        2813     12.48%     12.48% |        3764     16.69%     29.17% |        2667     11.83%     41.00% |        2986     13.24%     54.24% |        2022      8.97%     63.20% |        2557     11.34%     74.54% |        3052     13.53%     88.08% |        2688     11.92%    100.00% (Unspecified)
system.caches.L1Cache_Controller.E.Inv::total        22549                       (Unspecified)
system.caches.L1Cache_Controller.E.L1_Replacement |      372851     12.41%     12.41% |      375659     12.50%     24.91% |      373720     12.44%     37.35% |      375908     12.51%     49.86% |      377594     12.57%     62.42% |      377356     12.56%     74.98% |      377545     12.56%     87.54% |      374344     12.46%    100.00% (Unspecified)
system.caches.L1Cache_Controller.E.L1_Replacement::total      3004977                       (Unspecified)
system.caches.L1Cache_Controller.E.Fwd_GETX |          10     14.93%     14.93% |          13     19.40%     34.33% |          17     25.37%     59.70% |           7     10.45%     70.15% |           1      1.49%     71.64% |           7     10.45%     82.09% |           6      8.96%     91.04% |           6      8.96%    100.00% (Unspecified)
system.caches.L1Cache_Controller.E.Fwd_GETX::total           67                       (Unspecified)
system.caches.L1Cache_Controller.E.Fwd_GETS |        5451     14.16%     14.16% |        5158     13.40%     27.56% |        4744     12.33%     39.89% |        4656     12.10%     51.99% |        4674     12.14%     64.13% |        4560     11.85%     75.98% |        4654     12.09%     88.07% |        4591     11.93%    100.00% (Unspecified)
system.caches.L1Cache_Controller.E.Fwd_GETS::total        38488                       (Unspecified)
system.caches.L1Cache_Controller.M.Load  |      678324     12.56%     12.56% |      668445     12.38%     24.93% |      669825     12.40%     37.34% |      670179     12.41%     49.74% |      700995     12.98%     62.72% |      669524     12.40%     75.12% |      673023     12.46%     87.58% |      670816     12.42%    100.00% (Unspecified)
system.caches.L1Cache_Controller.M.Load::total      5401131                       (Unspecified)
system.caches.L1Cache_Controller.M.Store |     1438741     12.24%     12.24% |     1435806     12.21%     24.45% |     1426546     12.13%     36.58% |     1436997     12.22%     48.81% |     1703209     14.49%     63.29% |     1439704     12.25%     75.54% |     1444912     12.29%     87.83% |     1430956     12.17%    100.00% (Unspecified)
system.caches.L1Cache_Controller.M.Store::total     11756871                       (Unspecified)
system.caches.L1Cache_Controller.M.Inv   |        1236     18.21%     18.21% |         438      6.45%     24.67% |        1572     23.17%     47.83% |         874     12.88%     60.71% |         590      8.69%     69.41% |         383      5.64%     75.05% |         344      5.07%     80.12% |        1349     19.88%    100.00% (Unspecified)
system.caches.L1Cache_Controller.M.Inv::total         6786                       (Unspecified)
system.caches.L1Cache_Controller.M.L1_Replacement |       79290     12.28%     12.28% |       76048     11.78%     24.06% |       74659     11.56%     35.62% |       75778     11.74%     47.35% |      112426     17.41%     64.76% |       76422     11.83%     76.60% |       76482     11.84%     88.44% |       74626     11.56%    100.00% (Unspecified)
system.caches.L1Cache_Controller.M.L1_Replacement::total       645731                       (Unspecified)
system.caches.L1Cache_Controller.M.Fwd_GETX |        1322     15.28%     15.28% |         897     10.37%     25.65% |        1189     13.74%     39.39% |        1244     14.38%     53.77% |        1083     12.52%     66.29% |        1059     12.24%     78.53% |         898     10.38%     88.91% |         959     11.09%    100.00% (Unspecified)
system.caches.L1Cache_Controller.M.Fwd_GETX::total         8651                       (Unspecified)
system.caches.L1Cache_Controller.M.Fwd_GETS |        1164     17.81%     17.81% |         725     11.09%     28.90% |         750     11.47%     40.38% |         735     11.25%     51.62% |         913     13.97%     65.59% |         800     12.24%     77.83% |         764     11.69%     89.52% |         685     10.48%    100.00% (Unspecified)
system.caches.L1Cache_Controller.M.Fwd_GETS::total         6536                       (Unspecified)
system.caches.L1Cache_Controller.IS.Inv  |           1      0.78%      0.78% |          28     21.88%     22.66% |          46     35.94%     58.59% |          47     36.72%     95.31% |           2      1.56%     96.88% |           0      0.00%     96.88% |           2      1.56%     98.44% |           2      1.56%    100.00% (Unspecified)
system.caches.L1Cache_Controller.IS.Inv::total          128                       (Unspecified)
system.caches.L1Cache_Controller.IS.Data_Exclusive |      426448     12.45%     12.45% |      427577     12.49%     24.94% |      425679     12.43%     37.37% |      427553     12.48%     49.85% |      432230     12.62%     62.47% |      428914     12.52%     75.00% |      429463     12.54%     87.54% |      426738     12.46%    100.00% (Unspecified)
system.caches.L1Cache_Controller.IS.Data_Exclusive::total      3424602                       (Unspecified)
system.caches.L1Cache_Controller.IS.DataS_fromL1 |        5463     12.13%     12.13% |        6468     14.37%     26.50% |        5974     13.27%     39.77% |        5457     12.12%     51.89% |        5494     12.20%     64.09% |        5318     11.81%     75.90% |        5395     11.98%     87.88% |        5457     12.12%    100.00% (Unspecified)
system.caches.L1Cache_Controller.IS.DataS_fromL1::total        45026                       (Unspecified)
system.caches.L1Cache_Controller.IS.Data_all_Acks |      811778     12.49%     12.49% |      809214     12.45%     24.93% |      809627     12.45%     37.39% |      811404     12.48%     49.87% |      818078     12.58%     62.45% |      813400     12.51%     74.96% |      813867     12.52%     87.48% |      813892     12.52%    100.00% (Unspecified)
system.caches.L1Cache_Controller.IS.Data_all_Acks::total      6501260                       (Unspecified)
system.caches.L1Cache_Controller.IM.Data |          50      0.76%      0.76% |           3      0.05%      0.80% |           2      0.03%      0.83% |           3      0.05%      0.88% |        6544     99.05%     99.92% |           2      0.03%     99.95% |           2      0.03%     99.98% |           1      0.02%    100.00% (Unspecified)
system.caches.L1Cache_Controller.IM.Data::total         6607                       (Unspecified)
system.caches.L1Cache_Controller.IM.Data_all_Acks |       34944     11.52%     11.52% |       34782     11.47%     22.99% |       34307     11.31%     34.29% |       35151     11.59%     45.88% |       60192     19.84%     65.72% |       35154     11.59%     77.31% |       34874     11.50%     88.81% |       33945     11.19%    100.00% (Unspecified)
system.caches.L1Cache_Controller.IM.Data_all_Acks::total       303349                       (Unspecified)
system.caches.L1Cache_Controller.SM.Inv  |           2     50.00%     50.00% |           0      0.00%     50.00% |           0      0.00%     50.00% |           0      0.00%     50.00% |           0      0.00%     50.00% |           0      0.00%     50.00% |           1     25.00%     75.00% |           1     25.00%    100.00% (Unspecified)
system.caches.L1Cache_Controller.SM.Inv::total            4                       (Unspecified)
system.caches.L1Cache_Controller.SM.Ack  |        1633      2.88%      2.88% |         730      1.29%      4.17% |         648      1.14%      5.31% |         625      1.10%      6.41% |       51090     90.07%     96.48% |         660      1.16%     97.65% |         638      1.12%     98.77% |         697      1.23%    100.00% (Unspecified)
system.caches.L1Cache_Controller.SM.Ack::total        56721                       (Unspecified)
system.caches.L1Cache_Controller.SM.Ack_all |         906      6.66%      6.66% |         684      5.03%     11.69% |         616      4.53%     16.21% |         591      4.34%     20.56% |        8925     65.60%     86.15% |         627      4.61%     90.76% |         606      4.45%     95.22% |         651      4.78%    100.00% (Unspecified)
system.caches.L1Cache_Controller.SM.Ack_all::total        13606                       (Unspecified)
system.caches.L1Cache_Controller.IS_I.Data_Exclusive |           0      0.00%      0.00% |           0      0.00%      0.00% |           0      0.00%      0.00% |           0      0.00%      0.00% |           0      0.00%      0.00% |           0      0.00%      0.00% |           1    100.00%    100.00% |           0      0.00%    100.00% (Unspecified)
system.caches.L1Cache_Controller.IS_I.Data_Exclusive::total            1                       (Unspecified)
system.caches.L1Cache_Controller.IS_I.Data_all_Acks |           1      0.79%      0.79% |          28     22.05%     22.83% |          46     36.22%     59.06% |          47     37.01%     96.06% |           2      1.57%     97.64% |           0      0.00%     97.64% |           1      0.79%     98.43% |           2      1.57%    100.00% (Unspecified)
system.caches.L1Cache_Controller.IS_I.Data_all_Acks::total          127                       (Unspecified)
system.caches.L1Cache_Controller.M_I.Inv |           0      0.00%      0.00% |           0      0.00%      0.00% |           3     60.00%     60.00% |           2     40.00%    100.00% |           0      0.00%    100.00% |           0      0.00%    100.00% |           0      0.00%    100.00% |           0      0.00%    100.00% (Unspecified)
system.caches.L1Cache_Controller.M_I.Inv::total            5                       (Unspecified)
system.caches.L1Cache_Controller.M_I.Fwd_GETS |           0      0.00%      0.00% |           1     50.00%     50.00% |           0      0.00%     50.00% |           0      0.00%     50.00% |           1     50.00%    100.00% |           0      0.00%    100.00% |           0      0.00%    100.00% |           0      0.00%    100.00% (Unspecified)
system.caches.L1Cache_Controller.M_I.Fwd_GETS::total            2                       (Unspecified)
system.caches.L1Cache_Controller.M_I.WB_Ack |      452141     12.39%     12.39% |      451706     12.37%     24.76% |      448376     12.28%     37.04% |      451684     12.37%     49.41% |      490019     13.42%     62.84% |      453778     12.43%     75.27% |      454027     12.44%     87.70% |      448970     12.30%    100.00% (Unspecified)
system.caches.L1Cache_Controller.M_I.WB_Ack::total      3650701                       (Unspecified)
system.caches.L1Cache_Controller.SINK_WB_ACK.WB_Ack |           0      0.00%      0.00% |           1     14.29%     14.29% |           3     42.86%     57.14% |           2     28.57%     85.71% |           1     14.29%    100.00% |           0      0.00%    100.00% |           0      0.00%    100.00% |           0      0.00%    100.00% (Unspecified)
system.caches.L1Cache_Controller.SINK_WB_ACK.WB_Ack::total            7                       (Unspecified)
system.caches.Directory_Controller.Fetch |       12268      0.33%      0.33% |     3674256     99.67%    100.00% (Unspecified)
system.caches.Directory_Controller.Fetch::total      3686524                       (Unspecified)
system.caches.Directory_Controller.Data  |         787      0.12%      0.12% |      677224     99.88%    100.00% (Unspecified)
system.caches.Directory_Controller.Data::total       678011                       (Unspecified)
system.caches.Directory_Controller.Memory_Data |       12268      0.33%      0.33% |     3674248     99.67%    100.00% (Unspecified)
system.caches.Directory_Controller.Memory_Data::total      3686516                       (Unspecified)
system.caches.Directory_Controller.Memory_Ack |         787      0.12%      0.12% |      677224     99.88%    100.00% (Unspecified)
system.caches.Directory_Controller.Memory_Ack::total       678011                       (Unspecified)
system.caches.Directory_Controller.CleanReplacement |       11596      0.39%      0.39% |     2996916     99.61%    100.00% (Unspecified)
system.caches.Directory_Controller.CleanReplacement::total      3008512                       (Unspecified)
system.caches.Directory_Controller.I.Fetch |       12268      0.33%      0.33% |     3674256     99.67%    100.00% (Unspecified)
system.caches.Directory_Controller.I.Fetch::total      3686524                       (Unspecified)
system.caches.Directory_Controller.M.Data |         787      0.12%      0.12% |      677224     99.88%    100.00% (Unspecified)
system.caches.Directory_Controller.M.Data::total       678011                       (Unspecified)
system.caches.Directory_Controller.M.CleanReplacement |       11596      0.39%      0.39% |     2996916     99.61%    100.00% (Unspecified)
system.caches.Directory_Controller.M.CleanReplacement::total      3008512                       (Unspecified)
system.caches.Directory_Controller.IM.Memory_Data |       12268      0.33%      0.33% |     3674248     99.67%    100.00% (Unspecified)
system.caches.Directory_Controller.IM.Memory_Data::total      3686516                       (Unspecified)
system.caches.Directory_Controller.MI.Memory_Ack |         787      0.12%      0.12% |      677224     99.88%    100.00% (Unspecified)
system.caches.Directory_Controller.MI.Memory_Ack::total       678011                       (Unspecified)
system.caches.L2Cache_Controller.L1_GET_INSTR |       11249     13.35%     13.35% |       11004     13.06%     26.42% |       10104     11.99%     38.41% |        7322      8.69%     47.10% |       10734     12.74%     59.84% |       11129     13.21%     73.05% |       11026     13.09%     86.14% |       11673     13.86%    100.00% (Unspecified)
system.caches.L2Cache_Controller.L1_GET_INSTR::total        84241                       (Unspecified)
system.caches.L2Cache_Controller.L1_GETS |     1257598     12.72%     12.72% |     1244096     12.58%     25.30% |     1224070     12.38%     37.68% |     1217652     12.31%     49.99% |     1225114     12.39%     62.38% |     1241419     12.55%     74.93% |     1236750     12.51%     87.44% |     1242011     12.56%    100.00% (Unspecified)
system.caches.L2Cache_Controller.L1_GETS::total      9888710                       (Unspecified)
system.caches.L2Cache_Controller.L1_GETX |       38266     12.33%     12.33% |       44925     14.48%     26.81% |       36633     11.81%     38.62% |       37335     12.03%     50.65% |       37007     11.93%     62.57% |       39198     12.63%     75.21% |       37368     12.04%     87.25% |       39570     12.75%    100.00% (Unspecified)
system.caches.L2Cache_Controller.L1_GETX::total       310302                       (Unspecified)
system.caches.L2Cache_Controller.L1_UPGRADE |         250      3.53%      3.53% |         287      4.05%      7.58% |         253      3.57%     11.15% |         310      4.38%     15.53% |         330      4.66%     20.18% |         268      3.78%     23.97% |         608      8.58%     32.55% |        4779     67.45%    100.00% (Unspecified)
system.caches.L2Cache_Controller.L1_UPGRADE::total         7085                       (Unspecified)
system.caches.L2Cache_Controller.L1_PUTX |      453013     12.41%     12.41% |      456705     12.51%     24.92% |      454789     12.46%     37.38% |      457883     12.54%     49.92% |      455394     12.47%     62.39% |      457841     12.54%     74.93% |      456351     12.50%     87.43% |      458729     12.57%    100.00% (Unspecified)
system.caches.L2Cache_Controller.L1_PUTX::total      3650705                       (Unspecified)
system.caches.L2Cache_Controller.L1_PUTX_old |           0      0.00%      0.00% |           0      0.00%      0.00% |           6     60.00%     60.00% |           0      0.00%     60.00% |           4     40.00%    100.00% |           0      0.00%    100.00% |           0      0.00%    100.00% |           0      0.00%    100.00% (Unspecified)
system.caches.L2Cache_Controller.L1_PUTX_old::total           10                       (Unspecified)
system.caches.L2Cache_Controller.L2_Replacement |       84355     12.56%     12.56% |       83642     12.46%     25.02% |       83094     12.38%     37.40% |       83593     12.45%     49.84% |       83329     12.41%     62.26% |       84940     12.65%     74.91% |       83875     12.49%     87.40% |       84622     12.60%    100.00% (Unspecified)
system.caches.L2Cache_Controller.L2_Replacement::total       671450                       (Unspecified)
system.caches.L2Cache_Controller.L2_Replacement_clean |      377505     12.52%     12.52% |      377835     12.53%     25.05% |      376185     12.48%     37.53% |      376970     12.50%     50.03% |      376570     12.49%     62.52% |      376977     12.50%     75.02% |      376588     12.49%     87.51% |      376444     12.49%    100.00% (Unspecified)
system.caches.L2Cache_Controller.L2_Replacement_clean::total      3015074                       (Unspecified)
system.caches.L2Cache_Controller.Mem_Data |      461860     12.53%     12.53% |      461474     12.52%     25.05% |      459277     12.46%     37.50% |      460562     12.49%     50.00% |      459899     12.48%     62.47% |      461916     12.53%     75.00% |      460462     12.49%     87.49% |      461066     12.51%    100.00% (Unspecified)
system.caches.L2Cache_Controller.Mem_Data::total      3686516                       (Unspecified)
system.caches.L2Cache_Controller.Mem_Ack |      461860     12.53%     12.53% |      461477     12.52%     25.05% |      459278     12.46%     37.50% |      460563     12.49%     50.00% |      459899     12.48%     62.47% |      461917     12.53%     75.00% |      460463     12.49%     87.49% |      461066     12.51%    100.00% (Unspecified)
system.caches.L2Cache_Controller.Mem_Ack::total      3686523                       (Unspecified)
system.caches.L2Cache_Controller.WB_Data |        1618     12.14%     12.14% |        1123      8.43%     20.57% |         969      7.27%     27.84% |        1140      8.55%     36.39% |        1175      8.82%     45.21% |        1218      9.14%     54.34% |        1400     10.50%     64.85% |        4685     35.15%    100.00% (Unspecified)
system.caches.L2Cache_Controller.WB_Data::total        13328                       (Unspecified)
system.caches.L2Cache_Controller.WB_Data_clean |        8843     22.98%     22.98% |        4043     10.50%     33.48% |        4066     10.56%     44.04% |        4037     10.49%     54.53% |        3967     10.31%     64.84% |        4234     11.00%     75.84% |        4066     10.56%     86.40% |        5233     13.60%    100.00% (Unspecified)
system.caches.L2Cache_Controller.WB_Data_clean::total        38489                       (Unspecified)
system.caches.L2Cache_Controller.Ack     |       27151     16.81%     16.81% |       20565     12.73%     29.54% |       19121     11.84%     41.38% |       16854     10.43%     51.81% |       18872     11.68%     63.49% |       19789     12.25%     75.74% |       18972     11.74%     87.49% |       20213     12.51%    100.00% (Unspecified)
system.caches.L2Cache_Controller.Ack::total       161537                       (Unspecified)
system.caches.L2Cache_Controller.Ack_all |       11835     19.57%     19.57% |        7334     12.12%     31.69% |        6865     11.35%     43.04% |        6852     11.33%     54.37% |        6771     11.19%     65.56% |        6969     11.52%     77.08% |        6837     11.30%     88.38% |        7027     11.62%    100.00% (Unspecified)
system.caches.L2Cache_Controller.Ack_all::total        60490                       (Unspecified)
system.caches.L2Cache_Controller.Unblock |        9252     20.55%     20.55% |        4398      9.77%     30.32% |        4393      9.76%     40.07% |        4411      9.80%     49.87% |        4371      9.71%     59.58% |        4538     10.08%     69.66% |        4710     10.46%     80.12% |        8953     19.88%    100.00% (Unspecified)
system.caches.L2Cache_Controller.Unblock::total        45026                       (Unspecified)
system.caches.L2Cache_Controller.Exclusive_Unblock |      467074     12.48%     12.48% |      473397     12.65%     25.14% |      463508     12.39%     37.52% |      467469     12.49%     50.02% |      464351     12.41%     62.43% |      467469     12.49%     74.92% |      465696     12.45%     87.37% |      472594     12.63%    100.00% (Unspecified)
system.caches.L2Cache_Controller.Exclusive_Unblock::total      3741558                       (Unspecified)
system.caches.L2Cache_Controller.NP.L1_GET_INSTR |        1444     13.33%     13.33% |        1492     13.77%     27.10% |        1371     12.65%     39.75% |        1079      9.96%     49.71% |        1368     12.63%     62.34% |        1313     12.12%     74.45% |        1299     11.99%     86.44% |        1469     13.56%    100.00% (Unspecified)
system.caches.L2Cache_Controller.NP.L1_GET_INSTR::total        10835                       (Unspecified)
system.caches.L2Cache_Controller.NP.L1_GETS |      424500     12.51%     12.51% |      424894     12.52%     25.03% |      423383     12.48%     37.51% |      424687     12.51%     50.02% |      423631     12.48%     62.50% |      424375     12.51%     75.01% |      424042     12.50%     87.51% |      424013     12.49%    100.00% (Unspecified)
system.caches.L2Cache_Controller.NP.L1_GETS::total      3393525                       (Unspecified)
system.caches.L2Cache_Controller.NP.L1_GETX |       35916     12.73%     12.73% |       35091     12.44%     25.17% |       34525     12.24%     37.40% |       34797     12.33%     49.73% |       34900     12.37%     62.10% |       36229     12.84%     74.94% |       35122     12.45%     87.39% |       35584     12.61%    100.00% (Unspecified)
system.caches.L2Cache_Controller.NP.L1_GETX::total       282164                       (Unspecified)
system.caches.L2Cache_Controller.NP.L1_PUTX_old |           0      0.00%      0.00% |           0      0.00%      0.00% |           3     60.00%     60.00% |           0      0.00%     60.00% |           2     40.00%    100.00% |           0      0.00%    100.00% |           0      0.00%    100.00% |           0      0.00%    100.00% (Unspecified)
system.caches.L2Cache_Controller.NP.L1_PUTX_old::total            5                       (Unspecified)
system.caches.L2Cache_Controller.SS.L1_GET_INSTR |        7865     13.06%     13.06% |        7747     12.86%     25.92% |        7248     12.04%     37.96% |        4928      8.18%     46.14% |        7796     12.95%     59.09% |        8214     13.64%     72.73% |        7902     13.12%     85.85% |        8523     14.15%    100.00% (Unspecified)
system.caches.L2Cache_Controller.SS.L1_GET_INSTR::total        60223                       (Unspecified)
system.caches.L2Cache_Controller.SS.L1_GETS |      817265     12.75%     12.75% |      809624     12.63%     25.39% |      791768     12.36%     37.74% |      782460     12.21%     49.95% |      792999     12.37%     62.33% |      807951     12.61%     74.93% |      802889     12.53%     87.46% |      803407     12.54%    100.00% (Unspecified)
system.caches.L2Cache_Controller.SS.L1_GETS::total      6408363                       (Unspecified)
system.caches.L2Cache_Controller.SS.L1_GETX |         860     13.01%     13.01% |         804     12.17%     25.18% |         826     12.50%     37.68% |         826     12.50%     50.18% |         829     12.55%     62.73% |         806     12.20%     74.92% |         812     12.29%     87.21% |         845     12.79%    100.00% (Unspecified)
system.caches.L2Cache_Controller.SS.L1_GETX::total         6608                       (Unspecified)
system.caches.L2Cache_Controller.SS.L1_UPGRADE |         250      3.57%      3.57% |         287      4.10%      7.67% |         253      3.61%     11.29% |         308      4.40%     15.69% |         328      4.69%     20.37% |         268      3.83%     24.20% |         527      7.53%     31.73% |        4778     68.27%    100.00% (Unspecified)
system.caches.L2Cache_Controller.SS.L1_UPGRADE::total         6999                       (Unspecified)
system.caches.L2Cache_Controller.SS.L1_PUTX |           0      0.00%      0.00% |           0      0.00%      0.00% |           0      0.00%      0.00% |           0      0.00%      0.00% |           0      0.00%      0.00% |           0      0.00%      0.00% |           0      0.00%      0.00% |           2    100.00%    100.00% (Unspecified)
system.caches.L2Cache_Controller.SS.L1_PUTX::total            2                       (Unspecified)
system.caches.L2Cache_Controller.SS.L2_Replacement |         264     14.22%     14.22% |         257     13.85%     28.07% |         192     10.34%     38.42% |         217     11.69%     50.11% |         203     10.94%     61.05% |         195     10.51%     71.55% |         242     13.04%     84.59% |         286     15.41%    100.00% (Unspecified)
system.caches.L2Cache_Controller.SS.L2_Replacement::total         1856                       (Unspecified)
system.caches.L2Cache_Controller.SS.L2_Replacement_clean |        8852     24.53%     24.53% |        4098     11.36%     35.89% |        4008     11.11%     46.99% |        3580      9.92%     56.91% |        3774     10.46%     67.37% |        3990     11.06%     78.43% |        3747     10.38%     88.81% |        4037     11.19%    100.00% (Unspecified)
system.caches.L2Cache_Controller.SS.L2_Replacement_clean::total        36086                       (Unspecified)
system.caches.L2Cache_Controller.M.L1_GET_INSTR |           1      5.26%      5.26% |           4     21.05%     26.32% |           4     21.05%     47.37% |           3     15.79%     63.16% |           2     10.53%     73.68% |           3     15.79%     89.47% |           1      5.26%     94.74% |           1      5.26%    100.00% (Unspecified)
system.caches.L2Cache_Controller.M.L1_GET_INSTR::total           19                       (Unspecified)
system.caches.L2Cache_Controller.M.L1_GETS |        4633     13.72%     13.72% |        3879     11.49%     25.21% |        3635     10.77%     35.98% |        5439     16.11%     52.09% |        3630     10.75%     62.84% |        3935     11.66%     74.49% |        3935     11.66%     86.15% |        4676     13.85%    100.00% (Unspecified)
system.caches.L2Cache_Controller.M.L1_GETS::total        33762                       (Unspecified)
system.caches.L2Cache_Controller.M.L1_GETX |        1437     11.53%     11.53% |        1311     10.52%     22.04% |        1250     10.03%     32.07% |        1329     10.66%     42.73% |        1246     10.00%     52.73% |        1733     13.90%     66.63% |        1414     11.34%     77.97% |        2746     22.03%    100.00% (Unspecified)
system.caches.L2Cache_Controller.M.L1_GETX::total        12466                       (Unspecified)
system.caches.L2Cache_Controller.M.L2_Replacement |       84066     12.56%     12.56% |       83368     12.45%     25.01% |       82892     12.38%     37.40% |       83352     12.45%     49.85% |       83109     12.42%     62.27% |       84714     12.66%     74.92% |       83621     12.49%     87.42% |       84236     12.58%    100.00% (Unspecified)
system.caches.L2Cache_Controller.M.L2_Replacement::total       669358                       (Unspecified)
system.caches.L2Cache_Controller.M.L2_Replacement_clean |      364750     12.36%     12.36% |      370007     12.54%     24.91% |      368879     12.50%     37.41% |      369593     12.53%     49.94% |      369248     12.52%     62.46% |      369320     12.52%     74.98% |      369249     12.52%     87.50% |      368838     12.50%    100.00% (Unspecified)
system.caches.L2Cache_Controller.M.L2_Replacement_clean::total      2949884                       (Unspecified)
system.caches.L2Cache_Controller.MT.L1_GETS |        9252     20.55%     20.55% |        4398      9.77%     30.32% |        4393      9.76%     40.07% |        4411      9.80%     49.87% |        4371      9.71%     59.58% |        4538     10.08%     69.66% |        4710     10.46%     80.12% |        8953     19.88%    100.00% (Unspecified)
system.caches.L2Cache_Controller.MT.L1_GETS::total        45026                       (Unspecified)
system.caches.L2Cache_Controller.MT.L1_GETX |          12      0.14%      0.14% |        7541     86.50%     86.64% |          18      0.21%     86.84% |         365      4.19%     91.03% |          24      0.28%     91.31% |         399      4.58%     95.88% |          18      0.21%     96.09% |         341      3.91%    100.00% (Unspecified)
system.caches.L2Cache_Controller.MT.L1_GETX::total         8718                       (Unspecified)
system.caches.L2Cache_Controller.MT.L1_PUTX |      453013     12.41%     12.41% |      456705     12.51%     24.92% |      454789     12.46%     37.38% |      457883     12.54%     49.92% |      455394     12.47%     62.39% |      457841     12.54%     74.93% |      456351     12.50%     87.43% |      458725     12.57%    100.00% (Unspecified)
system.caches.L2Cache_Controller.MT.L1_PUTX::total      3650701                       (Unspecified)
system.caches.L2Cache_Controller.MT.L2_Replacement |          25     10.59%     10.59% |          17      7.20%     17.80% |          10      4.24%     22.03% |          24     10.17%     32.20% |          17      7.20%     39.41% |          31     13.14%     52.54% |          12      5.08%     57.63% |         100     42.37%    100.00% (Unspecified)
system.caches.L2Cache_Controller.MT.L2_Replacement::total          236                       (Unspecified)
system.caches.L2Cache_Controller.MT.L2_Replacement_clean |        3903     13.41%     13.41% |        3730     12.82%     26.23% |        3298     11.33%     37.56% |        3797     13.05%     50.60% |        3548     12.19%     62.80% |        3667     12.60%     75.40% |        3592     12.34%     87.74% |        3569     12.26%    100.00% (Unspecified)
system.caches.L2Cache_Controller.MT.L2_Replacement_clean::total        29104                       (Unspecified)
system.caches.L2Cache_Controller.M_I.L1_GET_INSTR |          14      9.33%      9.33% |           0      0.00%      9.33% |           0      0.00%      9.33% |          24     16.00%     25.33% |          16     10.67%     36.00% |           0      0.00%     36.00% |          48     32.00%     68.00% |          48     32.00%    100.00% (Unspecified)
system.caches.L2Cache_Controller.M_I.L1_GET_INSTR::total          150                       (Unspecified)
system.caches.L2Cache_Controller.M_I.L1_GETS |          64     31.53%     31.53% |          40     19.70%     51.23% |          22     10.84%     62.07% |           6      2.96%     65.02% |           8      3.94%     68.97% |           4      1.97%     70.94% |          20      9.85%     80.79% |          39     19.21%    100.00% (Unspecified)
system.caches.L2Cache_Controller.M_I.L1_GETS::total          203                       (Unspecified)
system.caches.L2Cache_Controller.M_I.L1_GETX |          41     80.39%     80.39% |           1      1.96%     82.35% |           0      0.00%     82.35% |           0      0.00%     82.35% |           5      9.80%     92.16% |           4      7.84%    100.00% |           0      0.00%    100.00% |           0      0.00%    100.00% (Unspecified)
system.caches.L2Cache_Controller.M_I.L1_GETX::total           51                       (Unspecified)
system.caches.L2Cache_Controller.M_I.Mem_Ack |      461860     12.53%     12.53% |      461477     12.52%     25.05% |      459278     12.46%     37.50% |      460563     12.49%     50.00% |      459899     12.48%     62.47% |      461917     12.53%     75.00% |      460463     12.49%     87.49% |      461066     12.51%    100.00% (Unspecified)
system.caches.L2Cache_Controller.M_I.Mem_Ack::total      3686523                       (Unspecified)
system.caches.L2Cache_Controller.MT_I.WB_Data |          23     10.00%     10.00% |          17      7.39%     17.39% |          10      4.35%     21.74% |          21      9.13%     30.87% |          17      7.39%     38.26% |          30     13.04%     51.30% |          12      5.22%     56.52% |         100     43.48%    100.00% (Unspecified)
system.caches.L2Cache_Controller.MT_I.WB_Data::total          230                       (Unspecified)
system.caches.L2Cache_Controller.MT_I.Ack_all |           2     33.33%     33.33% |           0      0.00%     33.33% |           0      0.00%     33.33% |           3     50.00%     83.33% |           0      0.00%     83.33% |           1     16.67%    100.00% |           0      0.00%    100.00% |           0      0.00%    100.00% (Unspecified)
system.caches.L2Cache_Controller.MT_I.Ack_all::total            6                       (Unspecified)
system.caches.L2Cache_Controller.MCT_I.L1_PUTX_old |           0      0.00%      0.00% |           0      0.00%      0.00% |           3     60.00%     60.00% |           0      0.00%     60.00% |           2     40.00%    100.00% |           0      0.00%    100.00% |           0      0.00%    100.00% |           0      0.00%    100.00% (Unspecified)
system.caches.L2Cache_Controller.MCT_I.L1_PUTX_old::total            5                       (Unspecified)
system.caches.L2Cache_Controller.MCT_I.WB_Data |        1186     18.08%     18.08% |         751     11.45%     29.52% |         632      9.63%     39.16% |         745     11.35%     50.51% |         754     11.49%     62.00% |         884     13.47%     75.48% |         744     11.34%     86.82% |         865     13.18%    100.00% (Unspecified)
system.caches.L2Cache_Controller.MCT_I.WB_Data::total         6561                       (Unspecified)
system.caches.L2Cache_Controller.MCT_I.Ack_all |        2717     12.05%     12.05% |        2979     13.21%     25.27% |        2666     11.83%     37.09% |        3052     13.54%     50.63% |        2794     12.39%     63.03% |        2783     12.35%     75.37% |        2848     12.63%     88.01% |        2704     11.99%    100.00% (Unspecified)
system.caches.L2Cache_Controller.MCT_I.Ack_all::total        22543                       (Unspecified)
system.caches.L2Cache_Controller.I_I.L1_GET_INSTR |           0      0.00%      0.00% |           0      0.00%      0.00% |           0      0.00%      0.00% |           0      0.00%      0.00% |           2    100.00%    100.00% |           0      0.00%    100.00% |           0      0.00%    100.00% |           0      0.00%    100.00% (Unspecified)
system.caches.L2Cache_Controller.I_I.L1_GET_INSTR::total            2                       (Unspecified)
system.caches.L2Cache_Controller.I_I.L1_GETS |           0      0.00%      0.00% |           1     20.00%     20.00% |           2     40.00%     60.00% |           0      0.00%     60.00% |           1     20.00%     80.00% |           0      0.00%     80.00% |           1     20.00%    100.00% |           0      0.00%    100.00% (Unspecified)
system.caches.L2Cache_Controller.I_I.L1_GETS::total            5                       (Unspecified)
system.caches.L2Cache_Controller.I_I.Ack |       25536     16.94%     16.94% |       18977     12.59%     29.53% |       17976     11.93%     41.46% |       15531     10.30%     51.76% |       17747     11.77%     63.54% |       18637     12.36%     75.90% |       17507     11.62%     87.52% |       18815     12.48%    100.00% (Unspecified)
system.caches.L2Cache_Controller.I_I.Ack::total       150726                       (Unspecified)
system.caches.L2Cache_Controller.I_I.Ack_all |        8852     24.53%     24.53% |        4098     11.36%     35.89% |        4007     11.10%     46.99% |        3580      9.92%     56.91% |        3774     10.46%     67.37% |        3990     11.06%     78.43% |        3747     10.38%     88.81% |        4037     11.19%    100.00% (Unspecified)
system.caches.L2Cache_Controller.I_I.Ack_all::total        36085                       (Unspecified)
system.caches.L2Cache_Controller.S_I.Ack |        1615     14.94%     14.94% |        1588     14.69%     29.63% |        1145     10.59%     40.22% |        1323     12.24%     52.46% |        1125     10.41%     62.86% |        1152     10.66%     73.52% |        1465     13.55%     87.07% |        1398     12.93%    100.00% (Unspecified)
system.caches.L2Cache_Controller.S_I.Ack::total        10811                       (Unspecified)
system.caches.L2Cache_Controller.S_I.Ack_all |         264     14.22%     14.22% |         257     13.85%     28.07% |         192     10.34%     38.42% |         217     11.69%     50.11% |         203     10.94%     61.05% |         195     10.51%     71.55% |         242     13.04%     84.59% |         286     15.41%    100.00% (Unspecified)
system.caches.L2Cache_Controller.S_I.Ack_all::total         1856                       (Unspecified)
system.caches.L2Cache_Controller.ISS.L1_GETS |         533     19.93%     19.93% |         407     15.21%     35.14% |         380     14.21%     49.35% |         281     10.50%     59.85% |         237      8.86%     68.71% |         275     10.28%     78.99% |         173      6.47%     85.46% |         389     14.54%    100.00% (Unspecified)
system.caches.L2Cache_Controller.ISS.L1_GETS::total         2675                       (Unspecified)
system.caches.L2Cache_Controller.ISS.L1_GETX |           0      0.00%      0.00% |           0      0.00%      0.00% |           0      0.00%      0.00% |           0      0.00%      0.00% |           0      0.00%      0.00% |           0      0.00%      0.00% |           2    100.00%    100.00% |           0      0.00%    100.00% (Unspecified)
system.caches.L2Cache_Controller.ISS.L1_GETX::total            2                       (Unspecified)
system.caches.L2Cache_Controller.ISS.Mem_Data |      423967     12.50%     12.50% |      424484     12.52%     25.02% |      423001     12.47%     37.50% |      424405     12.52%     50.01% |      423394     12.49%     62.50% |      424099     12.51%     75.01% |      423868     12.50%     87.51% |      423624     12.49%    100.00% (Unspecified)
system.caches.L2Cache_Controller.ISS.Mem_Data::total      3390842                       (Unspecified)
system.caches.L2Cache_Controller.IS.L1_GET_INSTR |        1925     14.79%     14.79% |        1761     13.53%     28.33% |        1481     11.38%     39.71% |        1288      9.90%     49.61% |        1550     11.91%     61.52% |        1599     12.29%     73.81% |        1776     13.65%     87.46% |        1632     12.54%    100.00% (Unspecified)
system.caches.L2Cache_Controller.IS.L1_GET_INSTR::total        13012                       (Unspecified)
system.caches.L2Cache_Controller.IS.L1_GETS |        1188     33.14%     33.14% |         706     19.69%     52.83% |         445     12.41%     65.24% |         281      7.84%     73.08% |         123      3.43%     76.51% |         307      8.56%     85.08% |         100      2.79%     87.87% |         435     12.13%    100.00% (Unspecified)
system.caches.L2Cache_Controller.IS.L1_GETS::total         3585                       (Unspecified)
system.caches.L2Cache_Controller.IS.Mem_Data |        1977     14.63%     14.63% |        1899     14.06%     28.69% |        1751     12.96%     41.65% |        1360     10.07%     51.72% |        1605     11.88%     63.60% |        1588     11.75%     75.35% |        1472     10.90%     86.25% |        1858     13.75%    100.00% (Unspecified)
system.caches.L2Cache_Controller.IS.Mem_Data::total        13510                       (Unspecified)
system.caches.L2Cache_Controller.IM.L1_GETX |           0      0.00%      0.00% |           7     77.78%     77.78% |           0      0.00%     77.78% |           0      0.00%     77.78% |           2     22.22%    100.00% |           0      0.00%    100.00% |           0      0.00%    100.00% |           0      0.00%    100.00% (Unspecified)
system.caches.L2Cache_Controller.IM.L1_GETX::total            9                       (Unspecified)
system.caches.L2Cache_Controller.IM.Mem_Data |       35916     12.73%     12.73% |       35091     12.44%     25.17% |       34525     12.24%     37.40% |       34797     12.33%     49.73% |       34900     12.37%     62.10% |       36229     12.84%     74.94% |       35122     12.45%     87.39% |       35584     12.61%    100.00% (Unspecified)
system.caches.L2Cache_Controller.IM.Mem_Data::total       282164                       (Unspecified)
system.caches.L2Cache_Controller.SS_MB.L1_GETS |          28      4.79%      4.79% |           0      0.00%      4.79% |           0      0.00%      4.79% |          23      3.94%      8.73% |          50      8.56%     17.29% |           0      0.00%     17.29% |         463     79.28%     96.58% |          20      3.42%    100.00% (Unspecified)
system.caches.L2Cache_Controller.SS_MB.L1_GETS::total          584                       (Unspecified)
system.caches.L2Cache_Controller.SS_MB.L1_GETX |           0      0.00%      0.00% |           6     37.50%     37.50% |           4     25.00%     62.50% |           4     25.00%     87.50% |           0      0.00%     87.50% |           0      0.00%     87.50% |           0      0.00%     87.50% |           2     12.50%    100.00% (Unspecified)
system.caches.L2Cache_Controller.SS_MB.L1_GETX::total           16                       (Unspecified)
system.caches.L2Cache_Controller.SS_MB.L1_UPGRADE |           0      0.00%      0.00% |           0      0.00%      0.00% |           0      0.00%      0.00% |           2     50.00%     50.00% |           1     25.00%     75.00% |           0      0.00%     75.00% |           0      0.00%     75.00% |           1     25.00%    100.00% (Unspecified)
system.caches.L2Cache_Controller.SS_MB.L1_UPGRADE::total            4                       (Unspecified)
system.caches.L2Cache_Controller.SS_MB.Exclusive_Unblock |        1110      8.16%      8.16% |        1091      8.02%     16.18% |        1079      7.93%     24.11% |        1134      8.33%     32.44% |        1157      8.50%     40.94% |        1074      7.89%     48.84% |        1339      9.84%     58.68% |        5623     41.32%    100.00% (Unspecified)
system.caches.L2Cache_Controller.SS_MB.Exclusive_Unblock::total        13607                       (Unspecified)
system.caches.L2Cache_Controller.MT_MB.L1_GETS |           8      7.62%      7.62% |          13     12.38%     20.00% |          13     12.38%     32.38% |          32     30.48%     62.86% |           8      7.62%     70.48% |          14     13.33%     83.81% |           0      0.00%     83.81% |          17     16.19%    100.00% (Unspecified)
system.caches.L2Cache_Controller.MT_MB.L1_GETS::total          105                       (Unspecified)
system.caches.L2Cache_Controller.MT_MB.L1_GETX |           0      0.00%      0.00% |         164     62.84%     62.84% |          10      3.83%     66.67% |           8      3.07%     69.73% |           1      0.38%     70.11% |          27     10.34%     80.46% |           0      0.00%     80.46% |          51     19.54%    100.00% (Unspecified)
system.caches.L2Cache_Controller.MT_MB.L1_GETX::total          261                       (Unspecified)
system.caches.L2Cache_Controller.MT_MB.Exclusive_Unblock |      465964     12.50%     12.50% |      472306     12.67%     25.17% |      462429     12.40%     37.57% |      466335     12.51%     50.08% |      463194     12.42%     62.51% |      466395     12.51%     75.02% |      464357     12.46%     87.47% |      466971     12.53%    100.00% (Unspecified)
system.caches.L2Cache_Controller.MT_MB.Exclusive_Unblock::total      3727951                       (Unspecified)
system.caches.L2Cache_Controller.MT_IIB.L1_GETS |         100     12.47%     12.47% |         117     14.59%     27.06% |          24      2.99%     30.05% |          32      3.99%     34.04% |          54      6.73%     40.77% |          19      2.37%     43.14% |         399     49.75%     92.89% |          57      7.11%    100.00% (Unspecified)
system.caches.L2Cache_Controller.MT_IIB.L1_GETS::total          802                       (Unspecified)
system.caches.L2Cache_Controller.MT_IIB.L1_GETX |           0      0.00%      0.00% |           0      0.00%      0.00% |           0      0.00%      0.00% |           6     85.71%     85.71% |           0      0.00%     85.71% |           0      0.00%     85.71% |           0      0.00%     85.71% |           1     14.29%    100.00% (Unspecified)
system.caches.L2Cache_Controller.MT_IIB.L1_GETX::total            7                       (Unspecified)
system.caches.L2Cache_Controller.MT_IIB.L1_PUTX |           0      0.00%      0.00% |           0      0.00%      0.00% |           0      0.00%      0.00% |           0      0.00%      0.00% |           0      0.00%      0.00% |           0      0.00%      0.00% |           0      0.00%      0.00% |           2    100.00%    100.00% (Unspecified)
system.caches.L2Cache_Controller.MT_IIB.L1_PUTX::total            2                       (Unspecified)
system.caches.L2Cache_Controller.MT_IIB.WB_Data |         408      6.27%      6.27% |         355      5.46%     11.73% |         327      5.03%     16.75% |         358      5.50%     22.26% |         391      6.01%     28.27% |         304      4.67%     32.94% |         643      9.88%     42.82% |        3720     57.18%    100.00% (Unspecified)
system.caches.L2Cache_Controller.MT_IIB.WB_Data::total         6506                       (Unspecified)
system.caches.L2Cache_Controller.MT_IIB.WB_Data_clean |        8843     22.98%     22.98% |        4043     10.50%     33.48% |        4066     10.56%     44.05% |        4036     10.49%     54.53% |        3966     10.30%     64.84% |        4234     11.00%     75.84% |        4066     10.56%     86.40% |        5233     13.60%    100.00% (Unspecified)
system.caches.L2Cache_Controller.MT_IIB.WB_Data_clean::total        38487                       (Unspecified)
system.caches.L2Cache_Controller.MT_IIB.Unblock |           1      3.03%      3.03% |           0      0.00%      3.03% |           0      0.00%      3.03% |          17     51.52%     54.55% |          14     42.42%     96.97% |           0      0.00%     96.97% |           1      3.03%    100.00% |           0      0.00%    100.00% (Unspecified)
system.caches.L2Cache_Controller.MT_IIB.Unblock::total           33                       (Unspecified)
system.caches.L2Cache_Controller.MT_IB.WB_Data |           1      3.23%      3.23% |           0      0.00%      3.23% |           0      0.00%      3.23% |          16     51.61%     54.84% |          13     41.94%     96.77% |           0      0.00%     96.77% |           1      3.23%    100.00% |           0      0.00%    100.00% (Unspecified)
system.caches.L2Cache_Controller.MT_IB.WB_Data::total           31                       (Unspecified)
system.caches.L2Cache_Controller.MT_IB.WB_Data_clean |           0      0.00%      0.00% |           0      0.00%      0.00% |           0      0.00%      0.00% |           1     50.00%     50.00% |           1     50.00%    100.00% |           0      0.00%    100.00% |           0      0.00%    100.00% |           0      0.00%    100.00% (Unspecified)
system.caches.L2Cache_Controller.MT_IB.WB_Data_clean::total            2                       (Unspecified)
system.caches.L2Cache_Controller.MT_SB.L1_GETS |          27     36.00%     36.00% |          17     22.67%     58.67% |           5      6.67%     65.33% |           0      0.00%     65.33% |           2      2.67%     68.00% |           1      1.33%     69.33% |          18     24.00%     93.33% |           5      6.67%    100.00% (Unspecified)
system.caches.L2Cache_Controller.MT_SB.L1_GETS::total           75                       (Unspecified)
system.caches.L2Cache_Controller.MT_SB.L1_UPGRADE |           0      0.00%      0.00% |           0      0.00%      0.00% |           0      0.00%      0.00% |           0      0.00%      0.00% |           1      1.22%      1.22% |           0      0.00%      1.22% |          81     98.78%    100.00% |           0      0.00%    100.00% (Unspecified)
system.caches.L2Cache_Controller.MT_SB.L1_UPGRADE::total           82                       (Unspecified)
system.caches.L2Cache_Controller.MT_SB.Unblock |        9251     20.56%     20.56% |        4398      9.77%     30.34% |        4393      9.76%     40.10% |        4394      9.77%     49.87% |        4357      9.68%     59.55% |        4538     10.09%     69.64% |        4709     10.47%     80.10% |        8953     19.90%    100.00% (Unspecified)
system.caches.L2Cache_Controller.MT_SB.Unblock::total        44993                       (Unspecified)
system.caches.RequestType.LD.latency_hist_seqr::bucket_size          512                       (Unspecified)
system.caches.RequestType.LD.latency_hist_seqr::max_bucket         5119                       (Unspecified)
system.caches.RequestType.LD.latency_hist_seqr::samples     97066260                       (Unspecified)
system.caches.RequestType.LD.latency_hist_seqr::mean    26.714120                       (Unspecified)
system.caches.RequestType.LD.latency_hist_seqr::gmean     1.495176                       (Unspecified)
system.caches.RequestType.LD.latency_hist_seqr::stdev   144.332693                       (Unspecified)
system.caches.RequestType.LD.latency_hist_seqr |    94401106     97.25%     97.25% |     2278539      2.35%     99.60% |      247576      0.26%     99.86% |      104502      0.11%     99.96% |       28021      0.03%     99.99% |        5898      0.01%    100.00% |         524      0.00%    100.00% |          82      0.00%    100.00% |          12      0.00%    100.00% |           0      0.00%    100.00% (Unspecified)
system.caches.RequestType.LD.latency_hist_seqr::total     97066260                       (Unspecified)
system.caches.RequestType.LD.hit_latency_hist_seqr::bucket_size            1                       (Unspecified)
system.caches.RequestType.LD.hit_latency_hist_seqr::max_bucket            9                       (Unspecified)
system.caches.RequestType.LD.hit_latency_hist_seqr::samples     87179333                       (Unspecified)
system.caches.RequestType.LD.hit_latency_hist_seqr::mean     1.000503                       (Unspecified)
system.caches.RequestType.LD.hit_latency_hist_seqr::gmean     1.000349                       (Unspecified)
system.caches.RequestType.LD.hit_latency_hist_seqr::stdev     0.022421                       (Unspecified)
system.caches.RequestType.LD.hit_latency_hist_seqr |           0      0.00%      0.00% |    87135485     99.95%     99.95% |       43848      0.05%    100.00% |           0      0.00%    100.00% |           0      0.00%    100.00% |           0      0.00%    100.00% |           0      0.00%    100.00% |           0      0.00%    100.00% |           0      0.00%    100.00% |           0      0.00%    100.00% (Unspecified)
system.caches.RequestType.LD.hit_latency_hist_seqr::total     87179333                       (Unspecified)
system.caches.RequestType.LD.miss_latency_hist_seqr::bucket_size          512                       (Unspecified)
system.caches.RequestType.LD.miss_latency_hist_seqr::max_bucket         5119                       (Unspecified)
system.caches.RequestType.LD.miss_latency_hist_seqr::samples      9886927                       (Unspecified)
system.caches.RequestType.LD.miss_latency_hist_seqr::mean   253.447457                       (Unspecified)
system.caches.RequestType.LD.miss_latency_hist_seqr::gmean    51.728490                       (Unspecified)
system.caches.RequestType.LD.miss_latency_hist_seqr::stdev   383.773577                       (Unspecified)
system.caches.RequestType.LD.miss_latency_hist_seqr |     7221773     73.04%     73.04% |     2278539     23.05%     96.09% |      247576      2.50%     98.59% |      104502      1.06%     99.65% |       28021      0.28%     99.93% |        5898      0.06%     99.99% |         524      0.01%    100.00% |          82      0.00%    100.00% |          12      0.00%    100.00% |           0      0.00%    100.00% (Unspecified)
system.caches.RequestType.LD.miss_latency_hist_seqr::total      9886927                       (Unspecified)
system.caches.RequestType.ST.latency_hist_seqr::bucket_size          512                       (Unspecified)
system.caches.RequestType.ST.latency_hist_seqr::max_bucket         5119                       (Unspecified)
system.caches.RequestType.ST.latency_hist_seqr::samples      8962090                       (Unspecified)
system.caches.RequestType.ST.latency_hist_seqr::mean    24.753870                       (Unspecified)
system.caches.RequestType.ST.latency_hist_seqr::gmean     1.231656                       (Unspecified)
system.caches.RequestType.ST.latency_hist_seqr::stdev   153.816556                       (Unspecified)
system.caches.RequestType.ST.latency_hist_seqr |     8748099     97.61%     97.61% |      161209      1.80%     99.41% |       35960      0.40%     99.81% |       10393      0.12%     99.93% |        4431      0.05%     99.98% |        1632      0.02%    100.00% |         273      0.00%    100.00% |          83      0.00%    100.00% |          10      0.00%    100.00% |           0      0.00%    100.00% (Unspecified)
system.caches.RequestType.ST.latency_hist_seqr::total      8962090                       (Unspecified)
system.caches.RequestType.ST.hit_latency_hist_seqr::bucket_size           64                       (Unspecified)
system.caches.RequestType.ST.hit_latency_hist_seqr::max_bucket          639                       (Unspecified)
system.caches.RequestType.ST.hit_latency_hist_seqr::samples      8670712                       (Unspecified)
system.caches.RequestType.ST.hit_latency_hist_seqr::mean     1.007289                       (Unspecified)
system.caches.RequestType.ST.hit_latency_hist_seqr::gmean     1.004798                       (Unspecified)
system.caches.RequestType.ST.hit_latency_hist_seqr::stdev     0.392199                       (Unspecified)
system.caches.RequestType.ST.hit_latency_hist_seqr |     8670703    100.00%    100.00% |           0      0.00%    100.00% |           0      0.00%    100.00% |           1      0.00%    100.00% |           1      0.00%    100.00% |           3      0.00%    100.00% |           2      0.00%    100.00% |           2      0.00%    100.00% |           0      0.00%    100.00% |           0      0.00%    100.00% (Unspecified)
system.caches.RequestType.ST.hit_latency_hist_seqr::total      8670712                       (Unspecified)
system.caches.RequestType.ST.miss_latency_hist_seqr::bucket_size          512                       (Unspecified)
system.caches.RequestType.ST.miss_latency_hist_seqr::max_bucket         5119                       (Unspecified)
system.caches.RequestType.ST.miss_latency_hist_seqr::samples       291378                       (Unspecified)
system.caches.RequestType.ST.miss_latency_hist_seqr::mean   731.395322                       (Unspecified)
system.caches.RequestType.ST.miss_latency_hist_seqr::gmean   526.482049                       (Unspecified)
system.caches.RequestType.ST.miss_latency_hist_seqr::stdev   459.982845                       (Unspecified)
system.caches.RequestType.ST.miss_latency_hist_seqr |       77387     26.56%     26.56% |      161209     55.33%     81.89% |       35960     12.34%     94.23% |       10393      3.57%     97.79% |        4431      1.52%     99.31% |        1632      0.56%     99.87% |         273      0.09%     99.97% |          83      0.03%    100.00% |          10      0.00%    100.00% |           0      0.00%    100.00% (Unspecified)
system.caches.RequestType.ST.miss_latency_hist_seqr::total       291378                       (Unspecified)
system.caches.RequestType.IFETCH.latency_hist_seqr::bucket_size          512                       (Unspecified)
system.caches.RequestType.IFETCH.latency_hist_seqr::max_bucket         5119                       (Unspecified)
system.caches.RequestType.IFETCH.latency_hist_seqr::samples     57009358                       (Unspecified)
system.caches.RequestType.IFETCH.latency_hist_seqr::mean     1.134443                       (Unspecified)
system.caches.RequestType.IFETCH.latency_hist_seqr::gmean     1.005055                       (Unspecified)
system.caches.RequestType.IFETCH.latency_hist_seqr::stdev     7.191529                       (Unspecified)
[...]
system.o3Cpu7.iew.predictedTakenIncorrect       466582                       # Number of branches that were predicted taken incorrectly (Count)
system.o3Cpu7.iew.predictedNotTakenIncorrect       622822                       # Number of branches that were predicted not taken incorrectly (Count)
system.o3Cpu7.iew.branchMispredicts           1089404                       # Number of branch mispredicts detected at execute (Count)
system.o3Cpu7.iew.instsToCommit              87544859                       # Cumulative count of insts sent to commit (Count)
system.o3Cpu7.iew.writebackCount             87196704                       # Cumulative count of insts written-back (Count)
system.o3Cpu7.iew.producerInst               66268879                       # Number of instructions producing a value (Count)
system.o3Cpu7.iew.consumerInst               97753255                       # Number of instructions consuming a value (Count)
system.o3Cpu7.iew.wbRate                     0.337404                       # Insts written-back per cycle ((Count/Cycle))
system.o3Cpu7.iew.wbFanout                   0.677920                       # Average fanout of values written-back ((Count/Count))
system.o3Cpu7.interrupts.clk_domain.clock         3200                       # Clock period in ticks (Tick)
system.o3Cpu7.lsq0.forwLoads                    36802                       # Number of loads that had data forwarded from stores (Count)
system.o3Cpu7.lsq0.squashedLoads              4204342                       # Number of loads squashed (Count)
system.o3Cpu7.lsq0.ignoredResponses               107                       # Number of memory responses ignored because the instruction is squashed (Count)
system.o3Cpu7.lsq0.memOrderViolation              204                       # Number of memory ordering violations (Count)
system.o3Cpu7.lsq0.squashedStores              567006                       # Number of stores squashed (Count)
system.o3Cpu7.lsq0.rescheduledLoads                44                       # Number of loads that were rescheduled (Count)
system.o3Cpu7.lsq0.blockedByCache                 475                       # Number of times an access to memory failed due to the cache being blocked (Count)
system.o3Cpu7.lsq0.loadToUse::samples         9369710                       # Distribution of cycle latency between the first time a load is issued and its completion (Unspecified)
system.o3Cpu7.lsq0.loadToUse::mean          75.804448                       # Distribution of cycle latency between the first time a load is issued and its completion (Unspecified)
system.o3Cpu7.lsq0.loadToUse::stdev        234.077255                       # Distribution of cycle latency between the first time a load is issued and its completion (Unspecified)
system.o3Cpu7.lsq0.loadToUse::0-9             7349450     78.44%     78.44% # Distribution of cycle latency between the first time a load is issued and its completion (Unspecified)
system.o3Cpu7.lsq0.loadToUse::10-19            567863      6.06%     84.50% # Distribution of cycle latency between the first time a load is issued and its completion (Unspecified)
system.o3Cpu7.lsq0.loadToUse::20-29            298658      3.19%     87.69% # Distribution of cycle latency between the first time a load is issued and its completion (Unspecified)
system.o3Cpu7.lsq0.loadToUse::30-39            128524      1.37%     89.06% # Distribution of cycle latency between the first time a load is issued and its completion (Unspecified)
system.o3Cpu7.lsq0.loadToUse::40-49             37937      0.40%     89.46% # Distribution of cycle latency between the first time a load is issued and its completion (Unspecified)
system.o3Cpu7.lsq0.loadToUse::50-59              6954      0.07%     89.54% # Distribution of cycle latency between the first time a load is issued and its completion (Unspecified)
system.o3Cpu7.lsq0.loadToUse::60-69              1247      0.01%     89.55% # Distribution of cycle latency between the first time a load is issued and its completion (Unspecified)
system.o3Cpu7.lsq0.loadToUse::70-79              1374      0.01%     89.57% # Distribution of cycle latency between the first time a load is issued and its completion (Unspecified)
system.o3Cpu7.lsq0.loadToUse::80-89              1207      0.01%     89.58% # Distribution of cycle latency between the first time a load is issued and its completion (Unspecified)
system.o3Cpu7.lsq0.loadToUse::90-99              1021      0.01%     89.59% # Distribution of cycle latency between the first time a load is issued and its completion (Unspecified)
system.o3Cpu7.lsq0.loadToUse::100-109             815      0.01%     89.60% # Distribution of cycle latency between the first time a load is issued and its completion (Unspecified)
system.o3Cpu7.lsq0.loadToUse::110-119             823      0.01%     89.61% # Distribution of cycle latency between the first time a load is issued and its completion (Unspecified)
system.o3Cpu7.lsq0.loadToUse::120-129             855      0.01%     89.62% # Distribution of cycle latency between the first time a load is issued and its completion (Unspecified)
system.o3Cpu7.lsq0.loadToUse::130-139             909      0.01%     89.63% # Distribution of cycle latency between the first time a load is issued and its completion (Unspecified)
system.o3Cpu7.lsq0.loadToUse::140-149             974      0.01%     89.64% # Distribution of cycle latency between the first time a load is issued and its completion (Unspecified)
system.o3Cpu7.lsq0.loadToUse::150-159            1093      0.01%     89.65% # Distribution of cycle latency between the first time a load is issued and its completion (Unspecified)
system.o3Cpu7.lsq0.loadToUse::160-169            1105      0.01%     89.66% # Distribution of cycle latency between the first time a load is issued and its completion (Unspecified)
system.o3Cpu7.lsq0.loadToUse::170-179            1256      0.01%     89.67% # Distribution of cycle latency between the first time a load is issued and its completion (Unspecified)
system.o3Cpu7.lsq0.loadToUse::180-189            1282      0.01%     89.69% # Distribution of cycle latency between the first time a load is issued and its completion (Unspecified)
system.o3Cpu7.lsq0.loadToUse::190-199            1391      0.01%     89.70% # Distribution of cycle latency between the first time a load is issued and its completion (Unspecified)
system.o3Cpu7.lsq0.loadToUse::200-209            1456      0.02%     89.72% # Distribution of cycle latency between the first time a load is issued and its completion (Unspecified)
system.o3Cpu7.lsq0.loadToUse::210-219            1628      0.02%     89.73% # Distribution of cycle latency between the first time a load is issued and its completion (Unspecified)
system.o3Cpu7.lsq0.loadToUse::220-229            1705      0.02%     89.75% # Distribution of cycle latency between the first time a load is issued and its completion (Unspecified)
system.o3Cpu7.lsq0.loadToUse::230-239            1898      0.02%     89.77% # Distribution of cycle latency between the first time a load is issued and its completion (Unspecified)
system.o3Cpu7.lsq0.loadToUse::240-249            1888      0.02%     89.79% # Distribution of cycle latency between the first time a load is issued and its completion (Unspecified)
system.o3Cpu7.lsq0.loadToUse::250-259            1976      0.02%     89.81% # Distribution of cycle latency between the first time a load is issued and its completion (Unspecified)
system.o3Cpu7.lsq0.loadToUse::260-269            1901      0.02%     89.83% # Distribution of cycle latency between the first time a load is issued and its completion (Unspecified)
system.o3Cpu7.lsq0.loadToUse::270-279            1970      0.02%     89.86% # Distribution of cycle latency between the first time a load is issued and its completion (Unspecified)
system.o3Cpu7.lsq0.loadToUse::280-289            2142      0.02%     89.88% # Distribution of cycle latency between the first time a load is issued and its completion (Unspecified)
system.o3Cpu7.lsq0.loadToUse::290-299            1981      0.02%     89.90% # Distribution of cycle latency between the first time a load is issued and its completion (Unspecified)
system.o3Cpu7.lsq0.loadToUse::overflows        946427     10.10%    100.00% # Distribution of cycle latency between the first time a load is issued and its completion (Unspecified)
system.o3Cpu7.lsq0.loadToUse::min_value             2                       # Distribution of cycle latency between the first time a load is issued and its completion (Unspecified)
system.o3Cpu7.lsq0.loadToUse::max_value          4016                       # Distribution of cycle latency between the first time a load is issued and its completion (Unspecified)
system.o3Cpu7.lsq0.loadToUse::total           9369710                       # Distribution of cycle latency between the first time a load is issued and its completion (Unspecified)
system.o3Cpu7.mmu.dtb.rdAccesses             13133726                       # TLB accesses on read requests (Count)
system.o3Cpu7.mmu.dtb.wrAccesses              1338388                       # TLB accesses on write requests (Count)
system.o3Cpu7.mmu.dtb.rdMisses                 834039                       # TLB misses on read requests (Count)
system.o3Cpu7.mmu.dtb.wrMisses                   1138                       # TLB misses on write requests (Count)
system.o3Cpu7.mmu.dtb.walker.power_state.pwrStateResidencyTicks::UNDEFINED  54167380399                       # Cumulative time (in ticks) in various power states (Tick)
system.o3Cpu7.mmu.itb.rdAccesses                    0                       # TLB accesses on read requests (Count)
system.o3Cpu7.mmu.itb.wrAccesses              7085333                       # TLB accesses on write requests (Count)
system.o3Cpu7.mmu.itb.rdMisses                      0                       # TLB misses on read requests (Count)
system.o3Cpu7.mmu.itb.wrMisses                    307                       # TLB misses on write requests (Count)
system.o3Cpu7.mmu.itb.walker.power_state.pwrStateResidencyTicks::UNDEFINED  54167380399                       # Cumulative time (in ticks) in various power states (Tick)
system.o3Cpu7.power_state.numTransitions           10                       # Number of power state transitions (Count)
system.o3Cpu7.power_state.ticksClkGated::samples            5                       # Distribution of time spent in the clock gated state (Tick)
system.o3Cpu7.power_state.ticksClkGated::mean    293973720                       # Distribution of time spent in the clock gated state (Tick)
system.o3Cpu7.power_state.ticksClkGated::stdev 393122895.431813                       # Distribution of time spent in the clock gated state (Tick)
system.o3Cpu7.power_state.ticksClkGated::1000-5e+10            5    100.00%    100.00% # Distribution of time spent in the clock gated state (Tick)
system.o3Cpu7.power_state.ticksClkGated::min_value     75717200                       # Distribution of time spent in the clock gated state (Tick)
system.o3Cpu7.power_state.ticksClkGated::max_value    993620600                       # Distribution of time spent in the clock gated state (Tick)
system.o3Cpu7.power_state.ticksClkGated::total            5                       # Distribution of time spent in the clock gated state (Tick)
system.o3Cpu7.power_state.pwrStateResidencyTicks::ON  40663608400                       # Cumulative time (in ticks) in various power states (Tick)
system.o3Cpu7.power_state.pwrStateResidencyTicks::CLK_GATED   1469868600                       # Cumulative time (in ticks) in various power states (Tick)
system.o3Cpu7.power_state.pwrStateResidencyTicks::OFF  12033903399                       # Cumulative time (in ticks) in various power states (Tick)
system.o3Cpu7.rename.squashCycles             1011608                       # Number of cycles rename is squashing (Cycle)
system.o3Cpu7.rename.idleCycles               7352385                       # Number of cycles rename is idle (Cycle)
system.o3Cpu7.rename.blockCycles            209119877                       # Number of cycles rename is blocking (Cycle)
system.o3Cpu7.rename.serializeStallCycles       391450                       # count of cycles rename stalled for serializing inst (Cycle)
system.o3Cpu7.rename.runCycles               24920296                       # Number of cycles rename is running (Cycle)
system.o3Cpu7.rename.unblockCycles           15384135                       # Number of cycles rename is unblocking (Cycle)
system.o3Cpu7.rename.renamedInsts           101178217                       # Number of instructions processed by rename (Count)
system.o3Cpu7.rename.ROBFullEvents            2006750                       # Number of times rename has blocked due to ROB full (Count)
system.o3Cpu7.rename.IQFullEvents             4149565                       # Number of times rename has blocked due to IQ full (Count)
system.o3Cpu7.rename.LQFullEvents            11133491                       # Number of times rename has blocked due to LQ full (Count)
system.o3Cpu7.rename.SQFullEvents              294616                       # Number of times rename has blocked due to SQ full (Count)
system.o3Cpu7.rename.renamedOperands        217620381                       # Number of destination operands rename has renamed (Count)
system.o3Cpu7.rename.lookups                374787995                       # Number of register rename lookups that rename has made (Count)
system.o3Cpu7.rename.intLookups             126442437                       # Number of integer rename lookups (Count)
system.o3Cpu7.rename.fpLookups                    248                       # Number of floating rename lookups (Count)
system.o3Cpu7.rename.committedMaps          142919954                       # Number of HB maps that are committed (Count)
system.o3Cpu7.rename.undoneMaps              74700265                       # Number of HB maps that are undone due to squashing (Count)
system.o3Cpu7.rename.serializing                 2601                       # count of serializing insts renamed (Count)
system.o3Cpu7.rename.tempSerializing             2627                       # count of temporary serializing insts renamed (Count)
system.o3Cpu7.rename.skidInsts                7819183                       # count of insts added to the skid buffer (Count)
system.o3Cpu7.rob.reads                     333218566                       # The number of ROB reads (Count)
system.o3Cpu7.rob.writes                    199389012                       # The number of ROB writes (Count)
system.o3Cpu7.thread_0.numInsts              41380805                       # Number of Instructions committed (Count)
system.o3Cpu7.thread_0.numOps                67796661                       # Number of Ops committed (Count)
system.o3Cpu7.thread_0.numMemRefs                   0                       # Number of Memory References (Count)
system.pc.bad_addr.power_state.pwrStateResidencyTicks::UNDEFINED  54167380399                       # Cumulative time (in ticks) in various power states (Tick)
system.pc.com_1.power_state.pwrStateResidencyTicks::UNDEFINED  54167380399                       # Cumulative time (in ticks) in various power states (Tick)
system.pc.default_bus.power_state.pwrStateResidencyTicks::UNDEFINED  54167380399                       # Cumulative time (in ticks) in various power states (Tick)
system.pc.empty_isa.power_state.pwrStateResidencyTicks::UNDEFINED  54167380399                       # Cumulative time (in ticks) in various power states (Tick)
system.pc.fake_com_2.power_state.pwrStateResidencyTicks::UNDEFINED  54167380399                       # Cumulative time (in ticks) in various power states (Tick)
system.pc.fake_com_3.power_state.pwrStateResidencyTicks::UNDEFINED  54167380399                       # Cumulative time (in ticks) in various power states (Tick)
system.pc.fake_com_4.power_state.pwrStateResidencyTicks::UNDEFINED  54167380399                       # Cumulative time (in ticks) in various power states (Tick)
system.pc.fake_floppy.power_state.pwrStateResidencyTicks::UNDEFINED  54167380399                       # Cumulative time (in ticks) in various power states (Tick)
system.pc.pci_host.power_state.pwrStateResidencyTicks::UNDEFINED  54167380399                       # Cumulative time (in ticks) in various power states (Tick)
system.pc.south_bridge.cmos.power_state.pwrStateResidencyTicks::UNDEFINED  54167380399                       # Cumulative time (in ticks) in various power states (Tick)
system.pc.south_bridge.dma1.power_state.pwrStateResidencyTicks::UNDEFINED  54167380399                       # Cumulative time (in ticks) in various power states (Tick)
system.pc.south_bridge.ide.disks0.IdeDisk.dmaReadFullPages            0                       # Number of full page size DMA reads (not PRD). (Count)
system.pc.south_bridge.ide.disks0.IdeDisk.dmaReadBytes            0                       # Number of bytes transfered via DMA reads (not PRD). (Byte)
system.pc.south_bridge.ide.disks0.IdeDisk.dmaReadTxs            0                       # Number of DMA read transactions (not PRD). (Count)
system.pc.south_bridge.ide.disks0.IdeDisk.dmaWriteFullPages            0                       # Number of full page size DMA writes. (Count)
system.pc.south_bridge.ide.disks0.IdeDisk.dmaWriteBytes            0                       # Number of bytes transfered via DMA writes. (Byte)
system.pc.south_bridge.ide.disks0.IdeDisk.dmaWriteTxs            0                       # Number of DMA write transactions. (Count)
system.pc.south_bridge.ide.disks1.IdeDisk.dmaReadFullPages            0                       # Number of full page size DMA reads (not PRD). (Count)
system.pc.south_bridge.ide.disks1.IdeDisk.dmaReadBytes            0                       # Number of bytes transfered via DMA reads (not PRD). (Byte)
system.pc.south_bridge.ide.disks1.IdeDisk.dmaReadTxs            0                       # Number of DMA read transactions (not PRD). (Count)
system.pc.south_bridge.ide.disks1.IdeDisk.dmaWriteFullPages            0                       # Number of full page size DMA writes. (Count)
system.pc.south_bridge.ide.disks1.IdeDisk.dmaWriteBytes            0                       # Number of bytes transfered via DMA writes. (Byte)
system.pc.south_bridge.ide.disks1.IdeDisk.dmaWriteTxs            0                       # Number of DMA write transactions. (Count)
system.pc.south_bridge.ide.power_state.pwrStateResidencyTicks::UNDEFINED  54167380399                       # Cumulative time (in ticks) in various power states (Tick)
system.pc.south_bridge.io_apic.power_state.pwrStateResidencyTicks::UNDEFINED  54167380399                       # Cumulative time (in ticks) in various power states (Tick)
system.pc.south_bridge.keyboard.power_state.pwrStateResidencyTicks::UNDEFINED  54167380399                       # Cumulative time (in ticks) in various power states (Tick)
system.pc.south_bridge.pic1.power_state.pwrStateResidencyTicks::UNDEFINED  54167380399                       # Cumulative time (in ticks) in various power states (Tick)
system.pc.south_bridge.pic2.power_state.pwrStateResidencyTicks::UNDEFINED  54167380399                       # Cumulative time (in ticks) in various power states (Tick)
system.pc.south_bridge.pit.power_state.pwrStateResidencyTicks::UNDEFINED  54167380399                       # Cumulative time (in ticks) in various power states (Tick)
system.pc.south_bridge.speaker.power_state.pwrStateResidencyTicks::UNDEFINED  54167380399                       # Cumulative time (in ticks) in various power states (Tick)
system.workload.inst.arm                            0                       # number of arm instructions executed (Count)
system.workload.inst.quiesce                        0                       # number of quiesce instructions executed (Count)

---------- End Simulation Statistics   ----------
