
---------- Begin Simulation Statistics ----------
simSeconds                                   0.086295                       # Number of seconds simulated (Second)
simTicks                                  86295113560                       # Number of ticks simulated (Tick)
finalTick                                215592898904800                       # Number of ticks from beginning of simulation (restored from checkpoints and never reset) (Tick)
simFreq                                  1000000000000                       # The number of ticks per simulated second ((Tick/Second))
hostSeconds                                   8312.77                       # Real time elapsed on the host (Second)
hostTickRate                                 10381029                       # The number of ticks simulated per host second (ticks/s) ((Tick/Second))
hostMemory                                   71801060                       # Number of bytes of host memory used (Byte)
simInsts                                    141646957                       # Number of instructions simulated (Count)
simOps                                      277584406                       # Number of ops (including micro ops) simulated (Count)
hostInstRate                                    17040                       # Simulator instruction rate (inst/s) ((Count/Second))
hostOpRate                                      33393                       # Simulator op (including micro ops) rate (op/s) ((Count/Second))
system.caches.delayHistogram::bucket_size           16                       # delay histogram for all message (Unspecified)
system.caches.delayHistogram::max_bucket          159                       # delay histogram for all message (Unspecified)
system.caches.delayHistogram::samples       145479286                       # delay histogram for all message (Unspecified)
system.caches.delayHistogram::mean           0.913996                       # delay histogram for all message (Unspecified)
system.caches.delayHistogram::stdev          3.930204                       # delay histogram for all message (Unspecified)
system.caches.delayHistogram             |   142619439     98.03%     98.03% |     2283074      1.57%     99.60% |      512144      0.35%     99.96% |       61154      0.04%    100.00% |        3371      0.00%    100.00% |         104      0.00%    100.00% |           0      0.00%    100.00% |           0      0.00%    100.00% |           0      0.00%    100.00% |           0      0.00%    100.00% # delay histogram for all message (Unspecified)
system.caches.delayHistogram::total         145479286                       # delay histogram for all message (Unspecified)
system.caches.m_outstandReqHistSeqr::bucket_size            2                       (Unspecified)
system.caches.m_outstandReqHistSeqr::max_bucket           19                       (Unspecified)
system.caches.m_outstandReqHistSeqr::samples     66357079                       (Unspecified)
system.caches.m_outstandReqHistSeqr::mean     4.261665                       (Unspecified)
system.caches.m_outstandReqHistSeqr::gmean     3.704486                       (Unspecified)
system.caches.m_outstandReqHistSeqr::stdev     2.029652                       (Unspecified)
system.caches.m_outstandReqHistSeqr      |     5737287      8.65%      8.65% |    19675338     29.65%     38.30% |    22923233     34.55%     72.84% |    13671727     20.60%     93.45% |     3972500      5.99%     99.43% |      364736      0.55%     99.98% |       11266      0.02%    100.00% |         922      0.00%    100.00% |          70      0.00%    100.00% |           0      0.00%    100.00% (Unspecified)
system.caches.m_outstandReqHistSeqr::total     66357079                       (Unspecified)
system.caches.m_latencyHistSeqr::bucket_size         1024                       (Unspecified)
system.caches.m_latencyHistSeqr::max_bucket        10239                       (Unspecified)
system.caches.m_latencyHistSeqr::samples     66393833                       (Unspecified)
system.caches.m_latencyHistSeqr::mean      173.572917                       (Unspecified)
system.caches.m_latencyHistSeqr::gmean       6.671782                       (Unspecified)
system.caches.m_latencyHistSeqr::stdev     381.615297                       (Unspecified)
system.caches.m_latencyHistSeqr          |    63763048     96.04%     96.04% |     2248678      3.39%     99.42% |      367366      0.55%     99.98% |       13553      0.02%    100.00% |        1038      0.00%    100.00% |         139      0.00%    100.00% |          11      0.00%    100.00% |           0      0.00%    100.00% |           0      0.00%    100.00% |           0      0.00%    100.00% (Unspecified)
system.caches.m_latencyHistSeqr::total       66393833                       (Unspecified)
system.caches.m_hitLatencyHistSeqr::bucket_size          512                       (Unspecified)
system.caches.m_hitLatencyHistSeqr::max_bucket         5119                       (Unspecified)
system.caches.m_hitLatencyHistSeqr::samples     39788996                       (Unspecified)
system.caches.m_hitLatencyHistSeqr::mean     1.034239                       (Unspecified)
system.caches.m_hitLatencyHistSeqr::gmean     1.010958                       (Unspecified)
system.caches.m_hitLatencyHistSeqr::stdev     4.155814                       (Unspecified)
system.caches.m_hitLatencyHistSeqr       |    39788262    100.00%    100.00% |         580      0.00%    100.00% |         104      0.00%    100.00% |          29      0.00%    100.00% |          19      0.00%    100.00% |           1      0.00%    100.00% |           1      0.00%    100.00% |           0      0.00%    100.00% |           0      0.00%    100.00% |           0      0.00%    100.00% (Unspecified)
system.caches.m_hitLatencyHistSeqr::total     39788996                       (Unspecified)
system.caches.m_missLatencyHistSeqr::bucket_size         1024                       (Unspecified)
system.caches.m_missLatencyHistSeqr::max_bucket        10239                       (Unspecified)
system.caches.m_missLatencyHistSeqr::samples     26604837                       (Unspecified)
system.caches.m_missLatencyHistSeqr::mean   431.613992                       (Unspecified)
system.caches.m_missLatencyHistSeqr::gmean   112.166246                       (Unspecified)
system.caches.m_missLatencyHistSeqr::stdev   502.289924                       (Unspecified)
system.caches.m_missLatencyHistSeqr      |    23974206     90.11%     90.11% |     2248545      8.45%     98.56% |      367346      1.38%     99.94% |       13552      0.05%    100.00% |        1038      0.00%    100.00% |         139      0.00%    100.00% |          11      0.00%    100.00% |           0      0.00%    100.00% |           0      0.00%    100.00% |           0      0.00%    100.00% (Unspecified)
system.caches.m_missLatencyHistSeqr::total     26604837                       (Unspecified)
system.caches.delayVCHist.vnet_0::bucket_size            8                       # delay histogram for vnet_0 (Unspecified)
system.caches.delayVCHist.vnet_0::max_bucket           79                       # delay histogram for vnet_0 (Unspecified)
system.caches.delayVCHist.vnet_0::samples     59261895                       # delay histogram for vnet_0 (Unspecified)
system.caches.delayVCHist.vnet_0::mean       0.092191                       # delay histogram for vnet_0 (Unspecified)
system.caches.delayVCHist.vnet_0::stdev      0.726220                       # delay histogram for vnet_0 (Unspecified)
system.caches.delayVCHist.vnet_0         |    59005636     99.57%     99.57% |      250087      0.42%     99.99% |        5861      0.01%    100.00% |         269      0.00%    100.00% |          31      0.00%    100.00% |           8      0.00%    100.00% |           0      0.00%    100.00% |           1      0.00%    100.00% |           2      0.00%    100.00% |           0      0.00%    100.00% # delay histogram for vnet_0 (Unspecified)
system.caches.delayVCHist.vnet_0::total      59261895                       # delay histogram for vnet_0 (Unspecified)
system.caches.delayVCHist.vnet_1::bucket_size           16                       # delay histogram for vnet_1 (Unspecified)
system.caches.delayVCHist.vnet_1::max_bucket          159                       # delay histogram for vnet_1 (Unspecified)
system.caches.delayVCHist.vnet_1::samples     76746705                       # delay histogram for vnet_1 (Unspecified)
system.caches.delayVCHist.vnet_1::mean       1.661232                       # delay histogram for vnet_1 (Unspecified)
system.caches.delayVCHist.vnet_1::stdev      5.262112                       # delay histogram for vnet_1 (Unspecified)
system.caches.delayVCHist.vnet_1         |    73893030     96.28%     96.28% |     2276944      2.97%     99.25% |      512105      0.67%     99.92% |       61153      0.08%    100.00% |        3369      0.00%    100.00% |         104      0.00%    100.00% |           0      0.00%    100.00% |           0      0.00%    100.00% |           0      0.00%    100.00% |           0      0.00%    100.00% # delay histogram for vnet_1 (Unspecified)
system.caches.delayVCHist.vnet_1::total      76746705                       # delay histogram for vnet_1 (Unspecified)
system.caches.delayVCHist.vnet_2::bucket_size            1                       # delay histogram for vnet_2 (Unspecified)
system.caches.delayVCHist.vnet_2::max_bucket            9                       # delay histogram for vnet_2 (Unspecified)
system.caches.delayVCHist.vnet_2::samples      9470686                       # delay histogram for vnet_2 (Unspecified)
system.caches.delayVCHist.vnet_2::mean       0.001051                       # delay histogram for vnet_2 (Unspecified)
system.caches.delayVCHist.vnet_2::stdev      0.045887                       # delay histogram for vnet_2 (Unspecified)
system.caches.delayVCHist.vnet_2         |     9465713     99.95%     99.95% |           0      0.00%     99.95% |        4968      0.05%    100.00% |           0      0.00%    100.00% |           5      0.00%    100.00% |           0      0.00%    100.00% |           0      0.00%    100.00% |           0      0.00%    100.00% |           0      0.00%    100.00% |           0      0.00%    100.00% # delay histogram for vnet_2 (Unspecified)
system.caches.delayVCHist.vnet_2::total       9470686                       # delay histogram for vnet_2 (Unspecified)
system.caches.L1Cache_Controller.Load    |     7539661     12.57%     12.57% |     7455379     12.43%     25.00% |     7533409     12.56%     37.56% |     7509012     12.52%     50.08% |     7483507     12.48%     62.55% |     7448311     12.42%     74.97% |     7519483     12.54%     87.51% |     7492319     12.49%    100.00% (Unspecified)
system.caches.L1Cache_Controller.Load::total     59981081                       (Unspecified)
system.caches.L1Cache_Controller.Ifetch  |      678152     13.09%     13.09% |      654420     12.63%     25.72% |      653764     12.62%     38.33% |      645293     12.45%     50.78% |      627698     12.11%     62.90% |      624421     12.05%     74.95% |      666299     12.86%     87.80% |      631994     12.20%    100.00% (Unspecified)
system.caches.L1Cache_Controller.Ifetch::total      5182041                       (Unspecified)
system.caches.L1Cache_Controller.Store   |      174205     14.15%     14.15% |      153169     12.44%     26.60% |      152900     12.42%     39.02% |      151728     12.33%     51.35% |      147827     12.01%     63.36% |      147069     11.95%     75.31% |      155347     12.62%     87.93% |      148562     12.07%    100.00% (Unspecified)
system.caches.L1Cache_Controller.Store::total      1230807                       (Unspecified)
system.caches.L1Cache_Controller.Inv     |      918711     12.56%     12.56% |      913333     12.49%     25.05% |      914813     12.51%     37.56% |      913046     12.48%     50.04% |      915811     12.52%     62.56% |      914582     12.50%     75.06% |      907673     12.41%     87.47% |      916127     12.53%    100.00% (Unspecified)
system.caches.L1Cache_Controller.Inv::total      7314096                       (Unspecified)
system.caches.L1Cache_Controller.L1_Replacement |     3305023     12.49%     12.49% |     3293957     12.44%     24.93% |     3312264     12.51%     37.45% |     3312118     12.51%     49.96% |     3323899     12.56%     62.52% |     3302970     12.48%     74.99% |     3291799     12.44%     87.43% |     3326716     12.57%    100.00% (Unspecified)
system.caches.L1Cache_Controller.L1_Replacement::total     26468746                       (Unspecified)
system.caches.L1Cache_Controller.Fwd_GETX |        1631     12.92%     12.92% |        1603     12.70%     25.62% |        1594     12.63%     38.25% |        1568     12.42%     50.67% |        1578     12.50%     63.17% |        1508     11.95%     75.12% |        1627     12.89%     88.01% |        1514     11.99%    100.00% (Unspecified)
system.caches.L1Cache_Controller.Fwd_GETX::total        12623                       (Unspecified)
system.caches.L1Cache_Controller.Fwd_GETS |      270415     12.61%     12.61% |      269285     12.56%     25.17% |      265889     12.40%     37.57% |      268361     12.52%     50.09% |      269535     12.57%     62.66% |      266140     12.41%     75.08% |      266756     12.44%     87.52% |      267585     12.48%    100.00% (Unspecified)
system.caches.L1Cache_Controller.Fwd_GETS::total      2143966                       (Unspecified)
system.caches.L1Cache_Controller.Fwd_GET_INSTR |           1    100.00%    100.00% |           0      0.00%    100.00% |           0      0.00%    100.00% |           0      0.00%    100.00% |           0      0.00%    100.00% |           0      0.00%    100.00% |           0      0.00%    100.00% |           0      0.00%    100.00% (Unspecified)
system.caches.L1Cache_Controller.Fwd_GET_INSTR::total            1                       (Unspecified)
system.caches.L1Cache_Controller.Data    |         114    100.00%    100.00% |           0      0.00%    100.00% |           0      0.00%    100.00% |           0      0.00%    100.00% |           0      0.00%    100.00% |           0      0.00%    100.00% |           0      0.00%    100.00% |           0      0.00%    100.00% (Unspecified)
system.caches.L1Cache_Controller.Data::total          114                       (Unspecified)
system.caches.L1Cache_Controller.Data_Exclusive |     2046473     12.45%     12.45% |     2039280     12.40%     24.85% |     2052229     12.48%     37.33% |     2064062     12.55%     49.88% |     2072527     12.60%     62.49% |     2057565     12.51%     75.00% |     2039694     12.41%     87.41% |     2070595     12.59%    100.00% (Unspecified)
system.caches.L1Cache_Controller.Data_Exclusive::total     16442425                       (Unspecified)
system.caches.L1Cache_Controller.DataS_fromL1 |      267056     12.46%     12.46% |      266192     12.42%     24.87% |      271078     12.64%     37.52% |      266388     12.43%     49.94% |      269391     12.57%     62.51% |      268691     12.53%     75.04% |      265701     12.39%     87.43% |      269470     12.57%    100.00% (Unspecified)
system.caches.L1Cache_Controller.DataS_fromL1::total      2143967                       (Unspecified)
system.caches.L1Cache_Controller.Data_all_Acks |     1007049     12.58%     12.58% |     1003811     12.54%     25.12% |     1004873     12.55%     37.67% |      997070     12.45%     50.13% |      997300     12.46%     62.58% |      991791     12.39%     74.97% |     1001900     12.52%     87.49% |     1001720     12.51%    100.00% (Unspecified)
system.caches.L1Cache_Controller.Data_all_Acks::total      8005514                       (Unspecified)
system.caches.L1Cache_Controller.Ack     |        2383     17.71%     17.71% |        1654     12.29%     30.00% |        1618     12.02%     42.02% |        1581     11.75%     53.77% |        1509     11.21%     64.98% |        1513     11.24%     76.22% |        1674     12.44%     88.66% |        1526     11.34%    100.00% (Unspecified)
system.caches.L1Cache_Controller.Ack::total        13458                       (Unspecified)
system.caches.L1Cache_Controller.Ack_all |        1856     14.35%     14.35% |        1654     12.79%     27.14% |        1618     12.51%     39.66% |        1581     12.23%     51.88% |        1509     11.67%     63.55% |        1513     11.70%     75.25% |        1674     12.95%     88.20% |        1526     11.80%    100.00% (Unspecified)
system.caches.L1Cache_Controller.Ack_all::total        12931                       (Unspecified)
system.caches.L1Cache_Controller.WB_Ack  |     1745917     12.45%     12.45% |     1734214     12.37%     24.82% |     1751177     12.49%     37.31% |     1760847     12.56%     49.87% |     1768281     12.61%     62.48% |     1755369     12.52%     75.00% |     1737274     12.39%     87.39% |     1768163     12.61%    100.00% (Unspecified)
system.caches.L1Cache_Controller.WB_Ack::total     14021242                       (Unspecified)
system.caches.L1Cache_Controller.NP.Load |     3291116     12.47%     12.47% |     3285063     12.45%     24.92% |     3303288     12.52%     37.43% |     3303201     12.52%     49.95% |     3314865     12.56%     62.51% |     3294100     12.48%     74.99% |     3282946     12.44%     87.43% |     3317647     12.57%    100.00% (Unspecified)
system.caches.L1Cache_Controller.NP.Load::total     26392226                       (Unspecified)
system.caches.L1Cache_Controller.NP.Ifetch |        9940     18.99%     18.99% |        6054     11.57%     30.56% |        6056     11.57%     42.13% |        6103     11.66%     53.79% |        5959     11.39%     65.18% |        6073     11.60%     76.78% |        6047     11.55%     88.33% |        6107     11.67%    100.00% (Unspecified)
system.caches.L1Cache_Controller.NP.Ifetch::total        52339                       (Unspecified)
system.caches.L1Cache_Controller.NP.Store |        4097     16.60%     16.60% |        2901     11.76%     28.36% |        2943     11.93%     40.29% |        2875     11.65%     51.94% |        3111     12.61%     64.55% |        2858     11.58%     76.13% |        2869     11.63%     87.76% |        3021     12.24%    100.00% (Unspecified)
system.caches.L1Cache_Controller.NP.Store::total        24675                       (Unspecified)
system.caches.L1Cache_Controller.NP.Inv  |      843730     12.54%     12.54% |      840354     12.49%     25.02% |      841582     12.50%     37.52% |      840919     12.49%     50.02% |      843938     12.54%     62.56% |      841437     12.50%     75.06% |      834155     12.39%     87.45% |      844651     12.55%    100.00% (Unspecified)
system.caches.L1Cache_Controller.NP.Inv::total      6730766                       (Unspecified)
system.caches.L1Cache_Controller.I.Load  |        3923     12.43%     12.43% |        4084     12.94%     25.38% |        4096     12.98%     38.36% |        3959     12.55%     50.91% |        3755     11.90%     62.81% |        3937     12.48%     75.29% |        4095     12.98%     88.26% |        3703     11.74%    100.00% (Unspecified)
system.caches.L1Cache_Controller.I.Load::total        31552                       (Unspecified)
system.caches.L1Cache_Controller.I.Ifetch |       10048     12.66%     12.66% |        9655     12.17%     24.83% |       10356     13.05%     37.88% |        9849     12.41%     50.29% |       10153     12.79%     63.08% |        9657     12.17%     75.25% |        9769     12.31%     87.56% |        9875     12.44%    100.00% (Unspecified)
system.caches.L1Cache_Controller.I.Ifetch::total        79362                       (Unspecified)
system.caches.L1Cache_Controller.I.Store |        1569     13.20%     13.20% |        1531     12.88%     26.08% |        1444     12.15%     38.23% |        1532     12.89%     51.12% |        1377     11.59%     62.71% |        1425     11.99%     74.70% |        1571     13.22%     87.92% |        1436     12.08%    100.00% (Unspecified)
system.caches.L1Cache_Controller.I.Store::total        11885                       (Unspecified)
system.caches.L1Cache_Controller.I.L1_Replacement |       60902     12.23%     12.23% |       62915     12.63%     24.86% |       62475     12.54%     37.40% |       61970     12.44%     49.85% |       61729     12.39%     62.24% |       63226     12.69%     74.94% |       63254     12.70%     87.64% |       61578     12.36%    100.00% (Unspecified)
system.caches.L1Cache_Controller.I.L1_Replacement::total       498049                       (Unspecified)
system.caches.L1Cache_Controller.S.Load  |     1907728     12.67%     12.67% |     1873045     12.44%     25.11% |     1911591     12.70%     37.80% |     1878145     12.47%     50.28% |     1850481     12.29%     62.57% |     1859112     12.35%     74.91% |     1913610     12.71%     87.62% |     1863601     12.38%    100.00% (Unspecified)
system.caches.L1Cache_Controller.S.Load::total     15057313                       (Unspecified)
system.caches.L1Cache_Controller.S.Ifetch |      658162     13.03%     13.03% |      638711     12.65%     25.68% |      637352     12.62%     38.30% |      629341     12.46%     50.76% |      611586     12.11%     62.87% |      608691     12.05%     74.92% |      650483     12.88%     87.80% |      616012     12.20%    100.00% (Unspecified)
system.caches.L1Cache_Controller.S.Ifetch::total      5050338                       (Unspecified)
system.caches.L1Cache_Controller.S.Store |        1743     13.58%     13.58% |        1655     12.90%     26.48% |        1619     12.62%     39.10% |        1584     12.35%     51.45% |        1511     11.78%     63.22% |        1513     11.79%     75.01% |        1677     13.07%     88.08% |        1529     11.92%    100.00% (Unspecified)
system.caches.L1Cache_Controller.S.Store::total        12831                       (Unspecified)
system.caches.L1Cache_Controller.S.Inv   |       37209     13.21%     13.21% |       34703     12.32%     25.53% |       35712     12.68%     38.21% |       34829     12.37%     50.58% |       34768     12.34%     62.92% |       34806     12.36%     75.28% |       35417     12.57%     87.85% |       34207     12.15%    100.00% (Unspecified)
system.caches.L1Cache_Controller.S.Inv::total       281651                       (Unspecified)
system.caches.L1Cache_Controller.S.L1_Replacement |     1498200     12.54%     12.54% |     1496825     12.53%     25.06% |     1498608     12.54%     37.61% |     1489298     12.46%     50.07% |     1493886     12.50%     62.57% |     1484372     12.42%     74.99% |     1491268     12.48%     87.47% |     1496972     12.53%    100.00% (Unspecified)
system.caches.L1Cache_Controller.S.L1_Replacement::total     11949429                       (Unspecified)
system.caches.L1Cache_Controller.E.Load  |     2185445     12.53%     12.53% |     2160744     12.39%     24.91% |     2184101     12.52%     37.44% |     2194599     12.58%     50.02% |     2188535     12.55%     62.56% |     2164809     12.41%     74.97% |     2185054     12.53%     87.50% |     2180824     12.50%    100.00% (Unspecified)
system.caches.L1Cache_Controller.E.Load::total     17444111                       (Unspecified)
system.caches.L1Cache_Controller.E.Store |        8077     13.42%     13.42% |        7576     12.59%     26.01% |        7537     12.53%     38.54% |        7460     12.40%     50.94% |        7297     12.13%     63.07% |        7240     12.03%     75.10% |        7682     12.77%     87.87% |        7301     12.13%    100.00% (Unspecified)
system.caches.L1Cache_Controller.E.Store::total        60170                       (Unspecified)
system.caches.L1Cache_Controller.E.Inv   |       37093     12.47%     12.47% |       37680     12.67%     25.14% |       37121     12.48%     37.62% |       36733     12.35%     49.98% |       36701     12.34%     62.32% |       37797     12.71%     75.03% |       37542     12.62%     87.65% |       36726     12.35%    100.00% (Unspecified)
system.caches.L1Cache_Controller.E.Inv::total       297393                       (Unspecified)
system.caches.L1Cache_Controller.E.L1_Replacement |     1731048     12.42%     12.42% |     1724331     12.37%     24.79% |     1741243     12.49%     37.28% |     1751109     12.56%     49.85% |     1758425     12.62%     62.46% |     1745908     12.53%     74.99% |     1727331     12.39%     87.38% |     1758466     12.62%    100.00% (Unspecified)
system.caches.L1Cache_Controller.E.L1_Replacement::total     13937861                       (Unspecified)
system.caches.L1Cache_Controller.E.Fwd_GETX |           0      0.00%      0.00% |           0      0.00%      0.00% |           0      0.00%      0.00% |           0      0.00%      0.00% |          53    100.00%    100.00% |           0      0.00%    100.00% |           0      0.00%    100.00% |           0      0.00%    100.00% (Unspecified)
system.caches.L1Cache_Controller.E.Fwd_GETX::total           53                       (Unspecified)
system.caches.L1Cache_Controller.E.Fwd_GETS |      268485     12.60%     12.60% |      267707     12.56%     25.16% |      264281     12.40%     37.56% |      266775     12.52%     50.08% |      268029     12.58%     62.66% |      264621     12.42%     75.08% |      265080     12.44%     87.52% |      266048     12.48%    100.00% (Unspecified)
system.caches.L1Cache_Controller.E.Fwd_GETS::total      2131026                       (Unspecified)
system.caches.L1Cache_Controller.E.Fwd_GET_INSTR |           1    100.00%    100.00% |           0      0.00%    100.00% |           0      0.00%    100.00% |           0      0.00%    100.00% |           0      0.00%    100.00% |           0      0.00%    100.00% |           0      0.00%    100.00% |           0      0.00%    100.00% (Unspecified)
system.caches.L1Cache_Controller.E.Fwd_GET_INSTR::total            1                       (Unspecified)
system.caches.L1Cache_Controller.M.Load  |      151438     14.34%     14.34% |      132436     12.54%     26.89% |      130325     12.34%     39.23% |      129098     12.23%     51.46% |      125863     11.92%     63.38% |      126348     11.97%     75.35% |      133773     12.67%     88.02% |      126537     11.98%    100.00% (Unspecified)
system.caches.L1Cache_Controller.M.Load::total      1055818                       (Unspecified)
system.caches.L1Cache_Controller.M.Store |      158719     14.16%     14.16% |      139506     12.44%     26.60% |      139357     12.43%     39.03% |      138277     12.33%     51.36% |      134531     12.00%     63.36% |      134033     11.95%     75.31% |      141548     12.62%     87.94% |      135275     12.06%    100.00% (Unspecified)
system.caches.L1Cache_Controller.M.Store::total      1121246                       (Unspecified)
system.caches.L1Cache_Controller.M.Inv   |         667     15.76%     15.76% |         590     13.94%     29.70% |         395      9.33%     39.03% |         558     13.18%     52.21% |         400      9.45%     61.66% |         537     12.69%     74.34% |         549     12.97%     87.31% |         537     12.69%    100.00% (Unspecified)
system.caches.L1Cache_Controller.M.Inv::total         4233                       (Unspecified)
system.caches.L1Cache_Controller.M.L1_Replacement |       14871     17.83%     17.83% |        9883     11.85%     29.69% |        9934     11.91%     41.60% |        9738     11.68%     53.28% |        9856     11.82%     65.10% |        9461     11.35%     76.45% |        9943     11.92%     88.37% |        9697     11.63%    100.00% (Unspecified)
system.caches.L1Cache_Controller.M.L1_Replacement::total        83383                       (Unspecified)
system.caches.L1Cache_Controller.M.Fwd_GETX |        1631     12.98%     12.98% |        1603     12.75%     25.73% |        1594     12.68%     38.41% |        1568     12.47%     50.88% |        1525     12.13%     63.02% |        1508     12.00%     75.01% |        1627     12.94%     87.96% |        1514     12.04%    100.00% (Unspecified)
system.caches.L1Cache_Controller.M.Fwd_GETX::total        12570                       (Unspecified)
system.caches.L1Cache_Controller.M.Fwd_GETS |        1924     14.90%     14.90% |        1576     12.21%     27.11% |        1605     12.43%     39.54% |        1582     12.25%     51.79% |        1504     11.65%     63.44% |        1515     11.73%     75.17% |        1674     12.96%     88.14% |        1532     11.86%    100.00% (Unspecified)
system.caches.L1Cache_Controller.M.Fwd_GETS::total        12912                       (Unspecified)
system.caches.L1Cache_Controller.IS.Inv  |           3     27.27%     27.27% |           0      0.00%     27.27% |           1      9.09%     36.36% |           1      9.09%     45.45% |           0      0.00%     45.45% |           1      9.09%     54.55% |           3     27.27%     81.82% |           2     18.18%    100.00% (Unspecified)
system.caches.L1Cache_Controller.IS.Inv::total           11                       (Unspecified)
system.caches.L1Cache_Controller.IS.L1_Replacement |           2      8.33%      8.33% |           3     12.50%     20.83% |           4     16.67%     37.50% |           3     12.50%     50.00% |           3     12.50%     62.50% |           3     12.50%     75.00% |           3     12.50%     87.50% |           3     12.50%    100.00% (Unspecified)
system.caches.L1Cache_Controller.IS.L1_Replacement::total           24                       (Unspecified)
system.caches.L1Cache_Controller.IS.Data_Exclusive |     2046470     12.45%     12.45% |     2039280     12.40%     24.85% |     2052228     12.48%     37.33% |     2064062     12.55%     49.88% |     2072527     12.60%     62.49% |     2057564     12.51%     75.00% |     2039692     12.41%     87.41% |     2070593     12.59%    100.00% (Unspecified)
system.caches.L1Cache_Controller.IS.Data_Exclusive::total     16442416                       (Unspecified)
system.caches.L1Cache_Controller.IS.DataS_fromL1 |      267056     12.46%     12.46% |      266192     12.42%     24.87% |      271078     12.64%     37.52% |      266388     12.43%     49.94% |      269391     12.57%     62.51% |      268691     12.53%     75.04% |      265701     12.39%     87.43% |      269470     12.57%    100.00% (Unspecified)
system.caches.L1Cache_Controller.IS.DataS_fromL1::total      2143967                       (Unspecified)
system.caches.L1Cache_Controller.IS.Data_all_Acks |     1001496     12.57%     12.57% |      999378     12.54%     25.11% |     1000485     12.55%     37.66% |      992659     12.46%     50.12% |      992810     12.46%     62.58% |      987508     12.39%     74.97% |      997456     12.52%     87.49% |      997260     12.51%    100.00% (Unspecified)
system.caches.L1Cache_Controller.IS.Data_all_Acks::total      7969052                       (Unspecified)
system.caches.L1Cache_Controller.IM.Data |         114    100.00%    100.00% |           0      0.00%    100.00% |           0      0.00%    100.00% |           0      0.00%    100.00% |           0      0.00%    100.00% |           0      0.00%    100.00% |           0      0.00%    100.00% |           0      0.00%    100.00% (Unspecified)
system.caches.L1Cache_Controller.IM.Data::total          114                       (Unspecified)
system.caches.L1Cache_Controller.IM.Data_all_Acks |        5553     15.23%     15.23% |        4433     12.16%     27.39% |        4388     12.04%     39.42% |        4410     12.10%     51.52% |        4490     12.31%     63.83% |        4283     11.75%     75.58% |        4443     12.19%     87.77% |        4460     12.23%    100.00% (Unspecified)
system.caches.L1Cache_Controller.IM.Data_all_Acks::total        36460                       (Unspecified)
system.caches.L1Cache_Controller.SM.Inv  |           1      7.14%      7.14% |           1      7.14%     14.29% |           1      7.14%     21.43% |           3     21.43%     42.86% |           2     14.29%     57.14% |           0      0.00%     57.14% |           3     21.43%     78.57% |           3     21.43%    100.00% (Unspecified)
system.caches.L1Cache_Controller.SM.Inv::total           14                       (Unspecified)
system.caches.L1Cache_Controller.SM.Ack  |        2383     17.71%     17.71% |        1654     12.29%     30.00% |        1618     12.02%     42.02% |        1581     11.75%     53.77% |        1509     11.21%     64.98% |        1513     11.24%     76.22% |        1674     12.44%     88.66% |        1526     11.34%    100.00% (Unspecified)
system.caches.L1Cache_Controller.SM.Ack::total        13458                       (Unspecified)
system.caches.L1Cache_Controller.SM.Ack_all |        1856     14.35%     14.35% |        1654     12.79%     27.14% |        1618     12.51%     39.66% |        1581     12.23%     51.88% |        1509     11.67%     63.55% |        1513     11.70%     75.25% |        1674     12.95%     88.20% |        1526     11.80%    100.00% (Unspecified)
system.caches.L1Cache_Controller.SM.Ack_all::total        12931                       (Unspecified)
system.caches.L1Cache_Controller.IS_I.Data_Exclusive |           3     33.33%     33.33% |           0      0.00%     33.33% |           1     11.11%     44.44% |           0      0.00%     44.44% |           0      0.00%     44.44% |           1     11.11%     55.56% |           2     22.22%     77.78% |           2     22.22%    100.00% (Unspecified)
system.caches.L1Cache_Controller.IS_I.Data_Exclusive::total            9                       (Unspecified)
system.caches.L1Cache_Controller.IS_I.Data_all_Acks |           0      0.00%      0.00% |           0      0.00%      0.00% |           0      0.00%      0.00% |           1     50.00%     50.00% |           0      0.00%     50.00% |           0      0.00%     50.00% |           1     50.00%    100.00% |           0      0.00%    100.00% (Unspecified)
system.caches.L1Cache_Controller.IS_I.Data_all_Acks::total            2                       (Unspecified)
system.caches.L1Cache_Controller.M_I.Load |          11     18.03%     18.03% |           7     11.48%     29.51% |           8     13.11%     42.62% |          10     16.39%     59.02% |           8     13.11%     72.13% |           5      8.20%     80.33% |           5      8.20%     88.52% |           7     11.48%    100.00% (Unspecified)
system.caches.L1Cache_Controller.M_I.Load::total           61                       (Unspecified)
system.caches.L1Cache_Controller.M_I.Ifetch |           2    100.00%    100.00% |           0      0.00%    100.00% |           0      0.00%    100.00% |           0      0.00%    100.00% |           0      0.00%    100.00% |           0      0.00%    100.00% |           0      0.00%    100.00% |           0      0.00%    100.00% (Unspecified)
system.caches.L1Cache_Controller.M_I.Ifetch::total            2                       (Unspecified)
system.caches.L1Cache_Controller.M_I.Inv |           8     28.57%     28.57% |           5     17.86%     46.43% |           1      3.57%     50.00% |           3     10.71%     60.71% |           2      7.14%     67.86% |           4     14.29%     82.14% |           4     14.29%     96.43% |           1      3.57%    100.00% (Unspecified)
system.caches.L1Cache_Controller.M_I.Inv::total           28                       (Unspecified)
system.caches.L1Cache_Controller.M_I.Fwd_GETS |           6     21.43%     21.43% |           2      7.14%     28.57% |           3     10.71%     39.29% |           4     14.29%     53.57% |           2      7.14%     60.71% |           4     14.29%     75.00% |           2      7.14%     82.14% |           5     17.86%    100.00% (Unspecified)
system.caches.L1Cache_Controller.M_I.Fwd_GETS::total           28                       (Unspecified)
system.caches.L1Cache_Controller.M_I.WB_Ack |     1745903     12.45%     12.45% |     1734207     12.37%     24.82% |     1751173     12.49%     37.31% |     1760840     12.56%     49.87% |     1768277     12.61%     62.48% |     1755361     12.52%     75.00% |     1737268     12.39%     87.39% |     1768157     12.61%    100.00% (Unspecified)
system.caches.L1Cache_Controller.M_I.WB_Ack::total     14021186                       (Unspecified)
system.caches.L1Cache_Controller.SINK_WB_ACK.WB_Ack |          14     25.00%     25.00% |           7     12.50%     37.50% |           4      7.14%     44.64% |           7     12.50%     57.14% |           4      7.14%     64.29% |           8     14.29%     78.57% |           6     10.71%     89.29% |           6     10.71%    100.00% (Unspecified)
system.caches.L1Cache_Controller.SINK_WB_ACK.WB_Ack::total           56                       (Unspecified)
system.caches.Directory_Controller.Fetch |       31569      0.24%      0.24% |    13299728     99.76%    100.00% (Unspecified)
system.caches.Directory_Controller.Fetch::total     13331297                       (Unspecified)
system.caches.Directory_Controller.Data  |        1663      1.30%      1.30% |      125921     98.70%    100.00% (Unspecified)
system.caches.Directory_Controller.Data::total       127584                       (Unspecified)
system.caches.Directory_Controller.Memory_Data |       31569      0.24%      0.24% |    13299697     99.76%    100.00% (Unspecified)
system.caches.Directory_Controller.Memory_Data::total     13331266                       (Unspecified)
system.caches.Directory_Controller.Memory_Ack |        1663      1.30%      1.30% |      125921     98.70%    100.00% (Unspecified)
system.caches.Directory_Controller.Memory_Ack::total       127584                       (Unspecified)
system.caches.Directory_Controller.CleanReplacement |       29873      0.23%      0.23% |    13173840     99.77%    100.00% (Unspecified)
system.caches.Directory_Controller.CleanReplacement::total     13203713                       (Unspecified)
system.caches.Directory_Controller.I.Fetch |       31569      0.24%      0.24% |    13299728     99.76%    100.00% (Unspecified)
system.caches.Directory_Controller.I.Fetch::total     13331297                       (Unspecified)
system.caches.Directory_Controller.M.Data |        1663      1.30%      1.30% |      125921     98.70%    100.00% (Unspecified)
system.caches.Directory_Controller.M.Data::total       127584                       (Unspecified)
system.caches.Directory_Controller.M.CleanReplacement |       29873      0.23%      0.23% |    13173840     99.77%    100.00% (Unspecified)
system.caches.Directory_Controller.M.CleanReplacement::total     13203713                       (Unspecified)
system.caches.Directory_Controller.IM.Memory_Data |       31569      0.24%      0.24% |    13299697     99.76%    100.00% (Unspecified)
system.caches.Directory_Controller.IM.Memory_Data::total     13331266                       (Unspecified)
system.caches.Directory_Controller.MI.Memory_Ack |        1663      1.30%      1.30% |      125921     98.70%    100.00% (Unspecified)
system.caches.Directory_Controller.MI.Memory_Ack::total       127584                       (Unspecified)
system.caches.L2Cache_Controller.L1_GET_INSTR |       15620     11.86%     11.86% |       17363     13.18%     25.04% |       15761     11.97%     37.01% |       11920      9.05%     46.06% |       16933     12.86%     58.91% |       19057     14.47%     73.38% |       17650     13.40%     86.78% |       17415     13.22%    100.00% (Unspecified)
system.caches.L2Cache_Controller.L1_GET_INSTR::total       131719                       (Unspecified)
system.caches.L2Cache_Controller.L1_GETS |     3377572     12.78%     12.78% |     3312287     12.54%     25.32% |     3325416     12.58%     37.90% |     3256835     12.33%     50.23% |     3280900     12.42%     62.64% |     3318452     12.56%     75.20% |     3261891     12.34%     87.55% |     3290756     12.45%    100.00% (Unspecified)
system.caches.L2Cache_Controller.L1_GETS::total     26424109                       (Unspecified)
system.caches.L2Cache_Controller.L1_GETX |        5802     15.86%     15.86% |        4722     12.91%     28.76% |         256      0.70%     29.46% |       14032     38.35%     67.81% |        2135      5.84%     73.65% |        4257     11.63%     85.28% |        2478      6.77%     92.06% |        2906      7.94%    100.00% (Unspecified)
system.caches.L2Cache_Controller.L1_GETX::total        36588                       (Unspecified)
system.caches.L2Cache_Controller.L1_UPGRADE |           0      0.00%      0.00% |        6484     50.51%     50.51% |           0      0.00%     50.51% |           0      0.00%     50.51% |           0      0.00%     50.51% |        6346     49.44%     99.95% |           6      0.05%    100.00% |           0      0.00%    100.00% (Unspecified)
system.caches.L2Cache_Controller.L1_UPGRADE::total        12836                       (Unspecified)
system.caches.L2Cache_Controller.L1_PUTX |     1752783     12.50%     12.50% |     1763704     12.58%     25.08% |     1752260     12.50%     37.58% |     1751080     12.49%     50.07% |     1748488     12.47%     62.54% |     1761782     12.57%     75.10% |     1741114     12.42%     87.52% |     1750032     12.48%    100.00% (Unspecified)
system.caches.L2Cache_Controller.L1_PUTX::total     14021243                       (Unspecified)
system.caches.L2Cache_Controller.L1_PUTX_old |          10     17.86%     17.86% |           6     10.71%     28.57% |           6     10.71%     39.29% |           6     10.71%     50.00% |           8     14.29%     64.29% |           6     10.71%     75.00% |           8     14.29%     89.29% |           6     10.71%    100.00% (Unspecified)
system.caches.L2Cache_Controller.L1_PUTX_old::total           56                       (Unspecified)
system.caches.L2Cache_Controller.L2_Replacement |       17064     13.70%     13.70% |       15784     12.68%     26.38% |       12970     10.42%     36.80% |       14822     11.90%     48.70% |       14610     11.73%     60.43% |       17342     13.93%     74.36% |       15514     12.46%     86.82% |       16411     13.18%    100.00% (Unspecified)
system.caches.L2Cache_Controller.L2_Replacement::total       124517                       (Unspecified)
system.caches.L2Cache_Controller.L2_Replacement_clean |     1646499     12.47%     12.47% |     1661899     12.58%     25.05% |     1648376     12.48%     37.53% |     1658541     12.56%     50.09% |     1647355     12.47%     62.56% |     1652737     12.51%     75.08% |     1642498     12.44%     87.51% |     1648876     12.49%    100.00% (Unspecified)
system.caches.L2Cache_Controller.L2_Replacement_clean::total     13206781                       (Unspecified)
system.caches.L2Cache_Controller.Mem_Data |     1663561     12.48%     12.48% |     1677677     12.58%     25.06% |     1661341     12.46%     37.53% |     1673359     12.55%     50.08% |     1661960     12.47%     62.54% |     1670075     12.53%     75.07% |     1658009     12.44%     87.51% |     1665284     12.49%    100.00% (Unspecified)
system.caches.L2Cache_Controller.Mem_Data::total     13331266                       (Unspecified)
system.caches.L2Cache_Controller.Mem_Ack |     1663562     12.48%     12.48% |     1677683     12.58%     25.06% |     1661346     12.46%     37.53% |     1673363     12.55%     50.08% |     1661965     12.47%     62.54% |     1670079     12.53%     75.07% |     1658012     12.44%     87.51% |     1665287     12.49%    100.00% (Unspecified)
system.caches.L2Cache_Controller.Mem_Ack::total     13331297                       (Unspecified)
system.caches.L2Cache_Controller.WB_Data |        1226      7.15%      7.15% |        7572     44.16%     51.31% |         209      1.22%     52.53% |         351      2.05%     54.58% |         297      1.73%     56.31% |        6681     38.97%     95.28% |         423      2.47%     97.74% |         387      2.26%    100.00% (Unspecified)
system.caches.L2Cache_Controller.WB_Data::total        17146                       (Unspecified)
system.caches.L2Cache_Controller.WB_Data_clean |      270384     12.69%     12.69% |      267651     12.56%     25.25% |      265680     12.47%     37.71% |      271365     12.73%     50.45% |      263584     12.37%     62.82% |      263168     12.35%     75.17% |      264843     12.43%     87.59% |      264407     12.41%    100.00% (Unspecified)
system.caches.L2Cache_Controller.WB_Data_clean::total      2131082                       (Unspecified)
system.caches.L2Cache_Controller.Ack     |      613929     12.66%     12.66% |      612803     12.64%     25.30% |      607319     12.52%     37.82% |      611525     12.61%     50.44% |      599032     12.35%     62.79% |      598742     12.35%     75.14% |      602707     12.43%     87.57% |      602807     12.43%    100.00% (Unspecified)
system.caches.L2Cache_Controller.Ack::total      4848864                       (Unspecified)
system.caches.L2Cache_Controller.Ack_all |      309599     12.65%     12.65% |      308419     12.60%     25.25% |      305100     12.47%     37.72% |      311946     12.75%     50.46% |      302847     12.37%     62.84% |      301988     12.34%     75.18% |      304257     12.43%     87.61% |      303243     12.39%    100.00% (Unspecified)
system.caches.L2Cache_Controller.Ack_all::total      2447399                       (Unspecified)
system.caches.L2Cache_Controller.Unblock |      270453     12.61%     12.61% |      274069     12.78%     25.40% |      265684     12.39%     37.79% |      271369     12.66%     50.45% |      263593     12.29%     62.74% |      269468     12.57%     75.31% |      264921     12.36%     87.67% |      264410     12.33%    100.00% (Unspecified)
system.caches.L2Cache_Controller.Unblock::total      2143967                       (Unspecified)
system.caches.L2Cache_Controller.Exclusive_Unblock |     2062048     12.50%     12.50% |     2078718     12.60%     25.11% |     2056976     12.47%     37.58% |     2075832     12.59%     50.17% |     2050717     12.43%     62.60% |     2069789     12.55%     75.15% |     2045196     12.40%     87.55% |     2052540     12.45%    100.00% (Unspecified)
system.caches.L2Cache_Controller.Exclusive_Unblock::total     16491816                       (Unspecified)
system.caches.L2Cache_Controller.NP.L1_GET_INSTR |        3325     12.66%     12.66% |        3642     13.86%     26.52% |        2990     11.38%     37.90% |        2565      9.76%     47.66% |        3379     12.86%     60.53% |        3413     12.99%     73.52% |        3330     12.68%     86.19% |        3627     13.81%    100.00% (Unspecified)
system.caches.L2Cache_Controller.NP.L1_GET_INSTR::total        26271                       (Unspecified)
system.caches.L2Cache_Controller.NP.L1_GETS |     1656076     12.47%     12.47% |     1670690     12.58%     25.04% |     1658102     12.48%     37.52% |     1669173     12.57%     50.09% |     1656475     12.47%     62.56% |     1662529     12.52%     75.07% |     1652311     12.44%     87.51% |     1658794     12.49%    100.00% (Unspecified)
system.caches.L2Cache_Controller.NP.L1_GETS::total     13284150                       (Unspecified)
system.caches.L2Cache_Controller.NP.L1_GETX |        4162     19.94%     19.94% |        3351     16.05%     35.99% |         254      1.22%     37.20% |        1625      7.78%     44.99% |        2111     10.11%     55.10% |        4137     19.82%     74.91% |        2371     11.36%     86.27% |        2866     13.73%    100.00% (Unspecified)
system.caches.L2Cache_Controller.NP.L1_GETX::total        20877                       (Unspecified)
system.caches.L2Cache_Controller.NP.L1_PUTX_old |           5     17.86%     17.86% |           3     10.71%     28.57% |           3     10.71%     39.29% |           3     10.71%     50.00% |           4     14.29%     64.29% |           3     10.71%     75.00% |           4     14.29%     89.29% |           3     10.71%    100.00% (Unspecified)
system.caches.L2Cache_Controller.NP.L1_PUTX_old::total           28                       (Unspecified)
system.caches.L2Cache_Controller.SS.L1_GET_INSTR |       11175     11.51%     11.51% |       12574     12.95%     24.45% |       11678     12.02%     36.47% |        8470      8.72%     45.19% |       12534     12.90%     58.10% |       14614     15.05%     73.14% |       13278     13.67%     86.81% |       12807     13.19%    100.00% (Unspecified)
system.caches.L2Cache_Controller.SS.L1_GET_INSTR::total        97130                       (Unspecified)
system.caches.L2Cache_Controller.SS.L1_GETS |     1047399     13.39%     13.39% |      968836     12.38%     25.77% |     1001135     12.80%     38.57% |      922172     11.79%     50.36% |      967032     12.36%     62.72% |      988426     12.64%     75.36% |      953029     12.18%     87.54% |      974844     12.46%    100.00% (Unspecified)
system.caches.L2Cache_Controller.SS.L1_GETS::total      7822873                       (Unspecified)
system.caches.L2Cache_Controller.SS.L1_GETX |          58     50.88%     50.88% |           0      0.00%     50.88% |           0      0.00%     50.88% |           0      0.00%     50.88% |           0      0.00%     50.88% |           0      0.00%     50.88% |          56     49.12%    100.00% |           0      0.00%    100.00% (Unspecified)
system.caches.L2Cache_Controller.SS.L1_GETX::total          114                       (Unspecified)
system.caches.L2Cache_Controller.SS.L1_UPGRADE |           0      0.00%      0.00% |        6473     50.50%     50.50% |           0      0.00%     50.50% |           0      0.00%     50.50% |           0      0.00%     50.50% |        6339     49.46%     99.96% |           5      0.04%    100.00% |           0      0.00%    100.00% (Unspecified)
system.caches.L2Cache_Controller.SS.L1_UPGRADE::total        12817                       (Unspecified)
system.caches.L2Cache_Controller.SS.L1_PUTX |           1      3.57%      3.57% |           2      7.14%     10.71% |           3     10.71%     21.43% |           6     21.43%     42.86% |           7     25.00%     67.86% |           3     10.71%     78.57% |           5     17.86%     96.43% |           1      3.57%    100.00% (Unspecified)
system.caches.L2Cache_Controller.SS.L1_PUTX::total           28                       (Unspecified)
system.caches.L2Cache_Controller.SS.L2_Replacement |         142     19.78%     19.78% |         116     16.16%     35.93% |          60      8.36%     44.29% |          58      8.08%     52.37% |          73     10.17%     62.53% |          60      8.36%     70.89% |         139     19.36%     90.25% |          70      9.75%    100.00% (Unspecified)
system.caches.L2Cache_Controller.SS.L2_Replacement::total          718                       (Unspecified)
system.caches.L2Cache_Controller.SS.L2_Replacement_clean |      273285     12.72%     12.72% |      270170     12.57%     25.29% |      267766     12.46%     37.74% |      272809     12.69%     50.44% |      265921     12.37%     62.81% |      265401     12.35%     75.16% |      266874     12.42%     87.57% |      267063     12.43%    100.00% (Unspecified)
system.caches.L2Cache_Controller.SS.L2_Replacement_clean::total      2149289                       (Unspecified)
system.caches.L2Cache_Controller.M.L1_GET_INSTR |           2     14.29%     14.29% |           4     28.57%     42.86% |           1      7.14%     50.00% |           3     21.43%     71.43% |           2     14.29%     85.71% |           1      7.14%     92.86% |           0      0.00%     92.86% |           1      7.14%    100.00% (Unspecified)
system.caches.L2Cache_Controller.M.L1_GET_INSTR::total           14                       (Unspecified)
system.caches.L2Cache_Controller.M.L1_GETS |      401731     12.69%     12.69% |      397720     12.56%     25.26% |      399534     12.62%     37.88% |      393365     12.43%     50.31% |      392934     12.41%     62.72% |      397331     12.55%     75.27% |      390984     12.35%     87.62% |      391748     12.38%    100.00% (Unspecified)
system.caches.L2Cache_Controller.M.L1_GETS::total      3165347                       (Unspecified)
system.caches.L2Cache_Controller.M.L1_GETX |        1549     52.33%     52.33% |        1253     42.33%     94.66% |           2      0.07%     94.73% |          24      0.81%     95.54% |          24      0.81%     96.35% |          37      1.25%     97.60% |          31      1.05%     98.65% |          40      1.35%    100.00% (Unspecified)
system.caches.L2Cache_Controller.M.L1_GETX::total         2960                       (Unspecified)
system.caches.L2Cache_Controller.M.L2_Replacement |       16461     13.43%     13.43% |       15095     12.32%     25.75% |       12901     10.53%     36.27% |       14749     12.03%     48.31% |       14525     11.85%     60.16% |       17140     13.98%     74.14% |       15359     12.53%     86.68% |       16330     13.32%    100.00% (Unspecified)
system.caches.L2Cache_Controller.M.L2_Replacement::total       122560                       (Unspecified)
system.caches.L2Cache_Controller.M.L2_Replacement_clean |     1336345     12.42%     12.42% |     1353015     12.58%     25.00% |     1343140     12.49%     37.49% |     1346321     12.52%     50.00% |     1344305     12.50%     62.50% |     1350570     12.56%     75.05% |     1338051     12.44%     87.49% |     1345330     12.51%    100.00% (Unspecified)
system.caches.L2Cache_Controller.M.L2_Replacement_clean::total     10757077                       (Unspecified)
system.caches.L2Cache_Controller.MT.L1_GET_INSTR |           0      0.00%      0.00% |           0      0.00%      0.00% |           0      0.00%      0.00% |           0      0.00%      0.00% |           0      0.00%      0.00% |           1    100.00%    100.00% |           0      0.00%    100.00% |           0      0.00%    100.00% (Unspecified)
system.caches.L2Cache_Controller.MT.L1_GET_INSTR::total            1                       (Unspecified)
system.caches.L2Cache_Controller.MT.L1_GETS |      270453     12.61%     12.61% |      274069     12.78%     25.40% |      265684     12.39%     37.79% |      271369     12.66%     50.45% |      263593     12.29%     62.74% |      269467     12.57%     75.31% |      264921     12.36%     87.67% |      264410     12.33%    100.00% (Unspecified)
system.caches.L2Cache_Controller.MT.L1_GETS::total      2143966                       (Unspecified)
system.caches.L2Cache_Controller.MT.L1_GETX |          33      0.26%      0.26% |         114      0.90%      1.16% |           0      0.00%      1.16% |       12373     98.02%     99.18% |           0      0.00%     99.18% |          83      0.66%     99.84% |          20      0.16%    100.00% |           0      0.00%    100.00% (Unspecified)
system.caches.L2Cache_Controller.MT.L1_GETX::total        12623                       (Unspecified)
system.caches.L2Cache_Controller.MT.L1_PUTX |     1752781     12.50%     12.50% |     1763700     12.58%     25.08% |     1752254     12.50%     37.58% |     1751068     12.49%     50.07% |     1748474     12.47%     62.54% |     1761776     12.57%     75.10% |     1741104     12.42%     87.52% |     1750030     12.48%    100.00% (Unspecified)
system.caches.L2Cache_Controller.MT.L1_PUTX::total     14021187                       (Unspecified)
system.caches.L2Cache_Controller.MT.L2_Replacement |         461     37.21%     37.21% |         573     46.25%     83.45% |           9      0.73%     84.18% |          15      1.21%     85.39% |          12      0.97%     86.36% |         142     11.46%     97.82% |          16      1.29%     99.11% |          11      0.89%    100.00% (Unspecified)
system.caches.L2Cache_Controller.MT.L2_Replacement::total         1239                       (Unspecified)
system.caches.L2Cache_Controller.MT.L2_Replacement_clean |       36869     12.27%     12.27% |       38714     12.89%     25.16% |       37470     12.47%     37.63% |       39411     13.12%     50.75% |       37129     12.36%     63.11% |       36766     12.24%     75.35% |       37573     12.51%     87.86% |       36483     12.14%    100.00% (Unspecified)
system.caches.L2Cache_Controller.MT.L2_Replacement_clean::total       300415                       (Unspecified)
system.caches.L2Cache_Controller.M_I.L1_GET_INSTR |           0      0.00%      0.00% |           0      0.00%      0.00% |           3     20.00%     20.00% |           7     46.67%     66.67% |           0      0.00%     66.67% |           0      0.00%     66.67% |           5     33.33%    100.00% |           0      0.00%    100.00% (Unspecified)
system.caches.L2Cache_Controller.M_I.L1_GET_INSTR::total           15                       (Unspecified)
system.caches.L2Cache_Controller.M_I.L1_GETS |          64     57.66%     57.66% |          10      9.01%     66.67% |           6      5.41%     72.07% |           6      5.41%     77.48% |          10      9.01%     86.49% |           7      6.31%     92.79% |           7      6.31%     99.10% |           1      0.90%    100.00% (Unspecified)
system.caches.L2Cache_Controller.M_I.L1_GETS::total          111                       (Unspecified)
system.caches.L2Cache_Controller.M_I.Mem_Ack |     1663562     12.48%     12.48% |     1677683     12.58%     25.06% |     1661346     12.46%     37.53% |     1673363     12.55%     50.08% |     1661965     12.47%     62.54% |     1670079     12.53%     75.07% |     1658012     12.44%     87.51% |     1665287     12.49%    100.00% (Unspecified)
system.caches.L2Cache_Controller.M_I.Mem_Ack::total     13331297                       (Unspecified)
system.caches.L2Cache_Controller.MT_I.WB_Data |         451     38.65%     38.65% |         563     48.24%     86.89% |           3      0.26%     87.15% |           3      0.26%     87.40% |           4      0.34%     87.75% |         137     11.74%     99.49% |           2      0.17%     99.66% |           4      0.34%    100.00% (Unspecified)
system.caches.L2Cache_Controller.MT_I.WB_Data::total         1167                       (Unspecified)
system.caches.L2Cache_Controller.MT_I.Ack_all |          10     13.89%     13.89% |          10     13.89%     27.78% |           6      8.33%     36.11% |          12     16.67%     52.78% |           8     11.11%     63.89% |           5      6.94%     70.83% |          14     19.44%     90.28% |           7      9.72%    100.00% (Unspecified)
system.caches.L2Cache_Controller.MT_I.Ack_all::total           72                       (Unspecified)
system.caches.L2Cache_Controller.MCT_I.L1_GETS |           1    100.00%    100.00% |           0      0.00%    100.00% |           0      0.00%    100.00% |           0      0.00%    100.00% |           0      0.00%    100.00% |           0      0.00%    100.00% |           0      0.00%    100.00% |           0      0.00%    100.00% (Unspecified)
system.caches.L2Cache_Controller.MCT_I.L1_GETS::total            1                       (Unspecified)
system.caches.L2Cache_Controller.MCT_I.L1_PUTX_old |           5     17.86%     17.86% |           3     10.71%     28.57% |           3     10.71%     39.29% |           3     10.71%     50.00% |           4     14.29%     64.29% |           3     10.71%     75.00% |           4     14.29%     89.29% |           3     10.71%    100.00% (Unspecified)
system.caches.L2Cache_Controller.MCT_I.L1_PUTX_old::total           28                       (Unspecified)
system.caches.L2Cache_Controller.MCT_I.WB_Data |         701     22.86%     22.86% |         588     19.17%     42.03% |         199      6.49%     48.52% |         341     11.12%     59.63% |         280      9.13%     68.76% |         241      7.86%     76.62% |         339     11.05%     87.68% |         378     12.32%    100.00% (Unspecified)
system.caches.L2Cache_Controller.MCT_I.WB_Data::total         3067                       (Unspecified)
system.caches.L2Cache_Controller.MCT_I.WB_Data_clean |           5     18.52%     18.52% |           3     11.11%     29.63% |           3     11.11%     40.74% |           3     11.11%     51.85% |           4     14.81%     66.67% |           3     11.11%     77.78% |           4     14.81%     92.59% |           2      7.41%    100.00% (Unspecified)
system.caches.L2Cache_Controller.MCT_I.WB_Data_clean::total           27                       (Unspecified)
system.caches.L2Cache_Controller.MCT_I.Ack_all |       36163     12.16%     12.16% |       38123     12.82%     24.99% |       37268     12.53%     37.52% |       39067     13.14%     50.66% |       36845     12.39%     63.05% |       36522     12.28%     75.34% |       37230     12.52%     87.86% |       36103     12.14%    100.00% (Unspecified)
system.caches.L2Cache_Controller.MCT_I.Ack_all::total       297321                       (Unspecified)
system.caches.L2Cache_Controller.I_I.L1_GET_INSTR |           0      0.00%      0.00% |           0      0.00%      0.00% |           0      0.00%      0.00% |           1    100.00%    100.00% |           0      0.00%    100.00% |           0      0.00%    100.00% |           0      0.00%    100.00% |           0      0.00%    100.00% (Unspecified)
system.caches.L2Cache_Controller.I_I.L1_GET_INSTR::total            1                       (Unspecified)
system.caches.L2Cache_Controller.I_I.L1_GETS |           2      8.33%      8.33% |           3     12.50%     20.83% |           3     12.50%     33.33% |           2      8.33%     41.67% |           1      4.17%     45.83% |           5     20.83%     66.67% |           5     20.83%     87.50% |           3     12.50%    100.00% (Unspecified)
system.caches.L2Cache_Controller.I_I.L1_GETS::total           24                       (Unspecified)
system.caches.L2Cache_Controller.I_I.Ack |      613676     12.66%     12.66% |      612622     12.64%     25.30% |      607219     12.53%     37.82% |      611441     12.61%     50.44% |      598926     12.35%     62.79% |      598649     12.35%     75.14% |      602495     12.43%     87.57% |      602703     12.43%    100.00% (Unspecified)
system.caches.L2Cache_Controller.I_I.Ack::total      4847731                       (Unspecified)
system.caches.L2Cache_Controller.I_I.Ack_all |      273284     12.72%     12.72% |      270170     12.57%     25.29% |      267766     12.46%     37.74% |      272809     12.69%     50.44% |      265921     12.37%     62.81% |      265401     12.35%     75.16% |      266874     12.42%     87.57% |      267063     12.43%    100.00% (Unspecified)
system.caches.L2Cache_Controller.I_I.Ack_all::total      2149288                       (Unspecified)
system.caches.L2Cache_Controller.S_I.Ack |         253     22.33%     22.33% |         181     15.98%     38.31% |         100      8.83%     47.13% |          84      7.41%     54.55% |         106      9.36%     63.90% |          93      8.21%     72.11% |         212     18.71%     90.82% |         104      9.18%    100.00% (Unspecified)
system.caches.L2Cache_Controller.S_I.Ack::total         1133                       (Unspecified)
system.caches.L2Cache_Controller.S_I.Ack_all |         142     19.78%     19.78% |         116     16.16%     35.93% |          60      8.36%     44.29% |          58      8.08%     52.37% |          73     10.17%     62.53% |          60      8.36%     70.89% |         139     19.36%     90.25% |          70      9.75%    100.00% (Unspecified)
system.caches.L2Cache_Controller.S_I.Ack_all::total          718                       (Unspecified)
system.caches.L2Cache_Controller.ISS.L1_GETS |        1559     22.14%     22.14% |         877     12.46%     34.60% |         911     12.94%     47.54% |         724     10.28%     57.83% |         822     11.68%     69.50% |         663      9.42%     78.92% |         579      8.22%     87.14% |         905     12.86%    100.00% (Unspecified)
system.caches.L2Cache_Controller.ISS.L1_GETS::total         7040                       (Unspecified)
system.caches.L2Cache_Controller.ISS.Mem_Data |     1654515     12.46%     12.46% |     1669807     12.58%     25.04% |     1657186     12.48%     37.52% |     1668445     12.57%     50.09% |     1655648     12.47%     62.56% |     1661862     12.52%     75.07% |     1651729     12.44%     87.51% |     1657886     12.49%    100.00% (Unspecified)
system.caches.L2Cache_Controller.ISS.Mem_Data::total     13277078                       (Unspecified)
system.caches.L2Cache_Controller.IS.L1_GET_INSTR |        1118     13.49%     13.49% |        1143     13.80%     27.29% |        1089     13.14%     40.43% |         874     10.55%     50.98% |        1018     12.29%     63.27% |        1026     12.38%     75.65% |        1037     12.52%     88.17% |         980     11.83%    100.00% (Unspecified)
system.caches.L2Cache_Controller.IS.L1_GET_INSTR::total         8285                       (Unspecified)
system.caches.L2Cache_Controller.IS.L1_GETS |         230     57.36%     57.36% |          50     12.47%     69.83% |          29      7.23%     77.06% |          15      3.74%     80.80% |          19      4.74%     85.54% |           9      2.24%     87.78% |          11      2.74%     90.52% |          38      9.48%    100.00% (Unspecified)
system.caches.L2Cache_Controller.IS.L1_GETS::total          401                       (Unspecified)
system.caches.L2Cache_Controller.IS.Mem_Data |        4884     14.66%     14.66% |        4519     13.57%     28.23% |        3901     11.71%     39.94% |        3289      9.87%     49.81% |        4201     12.61%     62.42% |        4076     12.24%     74.66% |        3909     11.73%     86.39% |        4532     13.61%    100.00% (Unspecified)
system.caches.L2Cache_Controller.IS.Mem_Data::total        33311                       (Unspecified)
system.caches.L2Cache_Controller.IM.Mem_Data |        4162     19.94%     19.94% |        3351     16.05%     35.99% |         254      1.22%     37.20% |        1625      7.78%     44.99% |        2111     10.11%     55.10% |        4137     19.82%     74.91% |        2371     11.36%     86.27% |        2866     13.73%    100.00% (Unspecified)
system.caches.L2Cache_Controller.IM.Mem_Data::total        20877                       (Unspecified)
system.caches.L2Cache_Controller.SS_MB.L1_GETS |           0      0.00%      0.00% |           2     10.53%     10.53% |           0      0.00%     10.53% |           0      0.00%     10.53% |           0      0.00%     10.53% |           0      0.00%     10.53% |          17     89.47%    100.00% |           0      0.00%    100.00% (Unspecified)
system.caches.L2Cache_Controller.SS_MB.L1_GETS::total           19                       (Unspecified)
system.caches.L2Cache_Controller.SS_MB.L1_GETX |           0      0.00%      0.00% |           1    100.00%    100.00% |           0      0.00%    100.00% |           0      0.00%    100.00% |           0      0.00%    100.00% |           0      0.00%    100.00% |           0      0.00%    100.00% |           0      0.00%    100.00% (Unspecified)
system.caches.L2Cache_Controller.SS_MB.L1_GETX::total            1                       (Unspecified)
system.caches.L2Cache_Controller.SS_MB.L1_UPGRADE |           0      0.00%      0.00% |           9     64.29%     64.29% |           0      0.00%     64.29% |           0      0.00%     64.29% |           0      0.00%     64.29% |           5     35.71%    100.00% |           0      0.00%    100.00% |           0      0.00%    100.00% (Unspecified)
system.caches.L2Cache_Controller.SS_MB.L1_UPGRADE::total           14                       (Unspecified)
system.caches.L2Cache_Controller.SS_MB.Exclusive_Unblock |          58      0.45%      0.45% |        6473     50.06%     50.51% |           0      0.00%     50.51% |           0      0.00%     50.51% |           0      0.00%     50.51% |        6339     49.02%     99.53% |          61      0.47%    100.00% |           0      0.00%    100.00% (Unspecified)
system.caches.L2Cache_Controller.SS_MB.Exclusive_Unblock::total        12931                       (Unspecified)
system.caches.L2Cache_Controller.MT_MB.L1_GETS |          44     32.35%     32.35% |          27     19.85%     52.21% |           9      6.62%     58.82% |           8      5.88%     64.71% |          12      8.82%     73.53% |          13      9.56%     83.09% |          11      8.09%     91.18% |          12      8.82%    100.00% (Unspecified)
system.caches.L2Cache_Controller.MT_MB.L1_GETS::total          136                       (Unspecified)
system.caches.L2Cache_Controller.MT_MB.L1_GETX |           0      0.00%      0.00% |           3     23.08%     23.08% |           0      0.00%     23.08% |          10     76.92%    100.00% |           0      0.00%    100.00% |           0      0.00%    100.00% |           0      0.00%    100.00% |           0      0.00%    100.00% (Unspecified)
system.caches.L2Cache_Controller.MT_MB.L1_GETX::total           13                       (Unspecified)
system.caches.L2Cache_Controller.MT_MB.Exclusive_Unblock |     2061990     12.51%     12.51% |     2072245     12.58%     25.09% |     2056976     12.48%     37.57% |     2075832     12.60%     50.17% |     2050717     12.44%     62.61% |     2063450     12.52%     75.13% |     2045135     12.41%     87.54% |     2052540     12.46%    100.00% (Unspecified)
system.caches.L2Cache_Controller.MT_MB.Exclusive_Unblock::total     16478885                       (Unspecified)
system.caches.L2Cache_Controller.MT_IIB.L1_GET_INSTR |           0      0.00%      0.00% |           0      0.00%      0.00% |           0      0.00%      0.00% |           0      0.00%      0.00% |           0      0.00%      0.00% |           2    100.00%    100.00% |           0      0.00%    100.00% |           0      0.00%    100.00% (Unspecified)
system.caches.L2Cache_Controller.MT_IIB.L1_GET_INSTR::total            2                       (Unspecified)
system.caches.L2Cache_Controller.MT_IIB.L1_GETS |          13     36.11%     36.11% |           2      5.56%     41.67% |           1      2.78%     44.44% |           1      2.78%     47.22% |           1      2.78%     50.00% |           2      5.56%     55.56% |          15     41.67%     97.22% |           1      2.78%    100.00% (Unspecified)
system.caches.L2Cache_Controller.MT_IIB.L1_GETS::total           36                       (Unspecified)
system.caches.L2Cache_Controller.MT_IIB.L1_PUTX |           1      3.57%      3.57% |           2      7.14%     10.71% |           3     10.71%     21.43% |           6     21.43%     42.86% |           7     25.00%     67.86% |           3     10.71%     78.57% |           5     17.86%     96.43% |           1      3.57%    100.00% (Unspecified)
system.caches.L2Cache_Controller.MT_IIB.L1_PUTX::total           28                       (Unspecified)
system.caches.L2Cache_Controller.MT_IIB.WB_Data |          74      0.57%      0.57% |        6420     49.73%     50.30% |           7      0.05%     50.35% |           7      0.05%     50.41% |          13      0.10%     50.51% |        6303     48.82%     99.33% |          82      0.64%     99.96% |           5      0.04%    100.00% (Unspecified)
system.caches.L2Cache_Controller.MT_IIB.WB_Data::total        12911                       (Unspecified)
system.caches.L2Cache_Controller.MT_IIB.WB_Data_clean |      270354     12.69%     12.69% |      267626     12.56%     25.25% |      265654     12.47%     37.71% |      271342     12.73%     50.45% |      263556     12.37%     62.82% |      263140     12.35%     75.17% |      264814     12.43%     87.59% |      264380     12.41%    100.00% (Unspecified)
system.caches.L2Cache_Controller.MT_IIB.WB_Data_clean::total      2130866                       (Unspecified)
system.caches.L2Cache_Controller.MT_IIB.Unblock |          25     13.16%     13.16% |          23     12.11%     25.26% |          23     12.11%     37.37% |          20     10.53%     47.89% |          24     12.63%     60.53% |          25     13.16%     73.68% |          25     13.16%     86.84% |          25     13.16%    100.00% (Unspecified)
system.caches.L2Cache_Controller.MT_IIB.Unblock::total          190                       (Unspecified)
system.caches.L2Cache_Controller.MT_IB.WB_Data |           0      0.00%      0.00% |           1    100.00%    100.00% |           0      0.00%    100.00% |           0      0.00%    100.00% |           0      0.00%    100.00% |           0      0.00%    100.00% |           0      0.00%    100.00% |           0      0.00%    100.00% (Unspecified)
system.caches.L2Cache_Controller.MT_IB.WB_Data::total            1                       (Unspecified)
system.caches.L2Cache_Controller.MT_IB.WB_Data_clean |          25     13.23%     13.23% |          22     11.64%     24.87% |          23     12.17%     37.04% |          20     10.58%     47.62% |          24     12.70%     60.32% |          25     13.23%     73.54% |          25     13.23%     86.77% |          25     13.23%    100.00% (Unspecified)
system.caches.L2Cache_Controller.MT_IB.WB_Data_clean::total          189                       (Unspecified)
system.caches.L2Cache_Controller.MT_SB.L1_GETS |           0      0.00%      0.00% |           1     20.00%     20.00% |           2     40.00%     60.00% |           0      0.00%     60.00% |           1     20.00%     80.00% |           0      0.00%     80.00% |           1     20.00%    100.00% |           0      0.00%    100.00% (Unspecified)
system.caches.L2Cache_Controller.MT_SB.L1_GETS::total            5                       (Unspecified)
system.caches.L2Cache_Controller.MT_SB.L1_UPGRADE |           0      0.00%      0.00% |           2     40.00%     40.00% |           0      0.00%     40.00% |           0      0.00%     40.00% |           0      0.00%     40.00% |           2     40.00%     80.00% |           1     20.00%    100.00% |           0      0.00%    100.00% (Unspecified)
system.caches.L2Cache_Controller.MT_SB.L1_UPGRADE::total            5                       (Unspecified)
system.caches.L2Cache_Controller.MT_SB.Unblock |      270428     12.61%     12.61% |      274046     12.78%     25.40% |      265661     12.39%     37.79% |      271349     12.66%     50.45% |      263569     12.29%     62.74% |      269443     12.57%     75.31% |      264896     12.36%     87.67% |      264385     12.33%    100.00% (Unspecified)
system.caches.L2Cache_Controller.MT_SB.Unblock::total      2143777                       (Unspecified)
system.caches.RequestType.LD.latency_hist_seqr::bucket_size         1024                       (Unspecified)
system.caches.RequestType.LD.latency_hist_seqr::max_bucket        10239                       (Unspecified)
system.caches.RequestType.LD.latency_hist_seqr::samples     59980987                       (Unspecified)
system.caches.RequestType.LD.latency_hist_seqr::mean   191.543447                       (Unspecified)
system.caches.RequestType.LD.latency_hist_seqr::gmean     8.078940                       (Unspecified)
system.caches.RequestType.LD.latency_hist_seqr::stdev   396.841864                       (Unspecified)
system.caches.RequestType.LD.latency_hist_seqr |    57355240     95.62%     95.62% |     2244300      3.74%     99.36% |      366739      0.61%     99.98% |       13521      0.02%    100.00% |        1037      0.00%    100.00% |         139      0.00%    100.00% |          11      0.00%    100.00% |           0      0.00%    100.00% |           0      0.00%    100.00% |           0      0.00%    100.00% (Unspecified)
system.caches.RequestType.LD.latency_hist_seqr::total     59980987                       (Unspecified)
system.caches.RequestType.LD.hit_latency_hist_seqr::bucket_size            1                       (Unspecified)
system.caches.RequestType.LD.hit_latency_hist_seqr::max_bucket            9                       (Unspecified)
system.caches.RequestType.LD.hit_latency_hist_seqr::samples     33557242                       (Unspecified)
system.caches.RequestType.LD.hit_latency_hist_seqr::mean     1.018849                       (Unspecified)
system.caches.RequestType.LD.hit_latency_hist_seqr::gmean     1.011988                       (Unspecified)
system.caches.RequestType.LD.hit_latency_hist_seqr::stdev     0.164063                       (Unspecified)
system.caches.RequestType.LD.hit_latency_hist_seqr |           0      0.00%      0.00% |    33053562     98.50%     98.50% |      387152      1.15%     99.65% |      104413      0.31%     99.96% |       11925      0.04%    100.00% |         190      0.00%    100.00% |           0      0.00%    100.00% |           0      0.00%    100.00% |           0      0.00%    100.00% |           0      0.00%    100.00% (Unspecified)
system.caches.RequestType.LD.hit_latency_hist_seqr::total     33557242                       (Unspecified)
system.caches.RequestType.LD.miss_latency_hist_seqr::bucket_size         1024                       (Unspecified)
system.caches.RequestType.LD.miss_latency_hist_seqr::max_bucket        10239                       (Unspecified)
system.caches.RequestType.LD.miss_latency_hist_seqr::samples     26423745                       (Unspecified)
system.caches.RequestType.LD.miss_latency_hist_seqr::mean   433.503096                       (Unspecified)
system.caches.RequestType.LD.miss_latency_hist_seqr::gmean   113.003102                       (Unspecified)
system.caches.RequestType.LD.miss_latency_hist_seqr::stdev   502.830240                       (Unspecified)
system.caches.RequestType.LD.miss_latency_hist_seqr |    23797998     90.06%     90.06% |     2244300      8.49%     98.56% |      366739      1.39%     99.94% |       13521      0.05%    100.00% |        1037      0.00%    100.00% |         139      0.00%    100.00% |          11      0.00%    100.00% |           0      0.00%    100.00% |           0      0.00%    100.00% |           0      0.00%    100.00% (Unspecified)
system.caches.RequestType.LD.miss_latency_hist_seqr::total     26423745                       (Unspecified)
system.caches.RequestType.ST.latency_hist_seqr::bucket_size          512                       (Unspecified)
system.caches.RequestType.ST.latency_hist_seqr::max_bucket         5119                       (Unspecified)
system.caches.RequestType.ST.latency_hist_seqr::samples      1170823                       (Unspecified)
system.caches.RequestType.ST.latency_hist_seqr::mean     8.822900                       (Unspecified)
system.caches.RequestType.ST.latency_hist_seqr::gmean     1.130875                       (Unspecified)
system.caches.RequestType.ST.latency_hist_seqr::stdev    91.153864                       (Unspecified)
system.caches.RequestType.ST.latency_hist_seqr |     1162022     99.25%     99.25% |        6314      0.54%     99.79% |        1686      0.14%     99.93% |         446      0.04%     99.97% |         263      0.02%     99.99% |          68      0.01%    100.00% |          18      0.00%    100.00% |           6      0.00%    100.00% |           0      0.00%    100.00% |           0      0.00%    100.00% (Unspecified)
system.caches.RequestType.ST.latency_hist_seqr::total      1170823                       (Unspecified)
system.caches.RequestType.ST.hit_latency_hist_seqr::bucket_size          256                       (Unspecified)
system.caches.RequestType.ST.hit_latency_hist_seqr::max_bucket         2559                       (Unspecified)
system.caches.RequestType.ST.hit_latency_hist_seqr::samples      1143291                       (Unspecified)
system.caches.RequestType.ST.hit_latency_hist_seqr::mean     1.033929                       (Unspecified)
system.caches.RequestType.ST.hit_latency_hist_seqr::gmean     1.022136                       (Unspecified)
system.caches.RequestType.ST.hit_latency_hist_seqr::stdev     1.874585                       (Unspecified)
[...]
system.o3Cpu7.iew.squashCycles                 118433                       # Number of cycles IEW is squashing (Cycle)
system.o3Cpu7.iew.blockCycles                42991321                       # Number of cycles IEW is blocking (Cycle)
system.o3Cpu7.iew.unblockCycles              58930962                       # Number of cycles IEW is unblocking (Cycle)
system.o3Cpu7.iew.dispatchedInsts            36451643                       # Number of instructions dispatched to IQ (Count)
system.o3Cpu7.iew.dispSquashedInsts             12796                       # Number of squashed instructions skipped by dispatch (Count)
system.o3Cpu7.iew.dispLoadInsts               7064947                       # Number of dispatched load instructions (Count)
system.o3Cpu7.iew.dispStoreInsts               172522                       # Number of dispatched store instructions (Count)
system.o3Cpu7.iew.dispNonSpecInsts               4816                       # Number of dispatched non-speculative instructions (Count)
system.o3Cpu7.iew.iqFullEvents                  74032                       # Number of times the IQ has become full, causing a stall (Count)
system.o3Cpu7.iew.lsqFullEvents              58609551                       # Number of times the LSQ has become full, causing a stall (Count)
system.o3Cpu7.iew.memOrderViolationEvents          514                       # Number of memory order violations (Count)
system.o3Cpu7.iew.predictedTakenIncorrect        85280                       # Number of branches that were predicted taken incorrectly (Count)
system.o3Cpu7.iew.predictedNotTakenIncorrect        35253                       # Number of branches that were predicted not taken incorrectly (Count)
system.o3Cpu7.iew.branchMispredicts            120533                       # Number of branch mispredicts detected at execute (Count)
system.o3Cpu7.iew.instsToCommit              35741511                       # Cumulative count of insts sent to commit (Count)
system.o3Cpu7.iew.writebackCount             35720185                       # Cumulative count of insts written-back (Count)
system.o3Cpu7.iew.producerInst               28650146                       # Number of instructions producing a value (Count)
system.o3Cpu7.iew.consumerInst               37043252                       # Number of instructions consuming a value (Count)
system.o3Cpu7.iew.wbRate                     0.082786                       # Insts written-back per cycle ((Count/Cycle))
system.o3Cpu7.iew.wbFanout                   0.773424                       # Average fanout of values written-back ((Count/Count))
system.o3Cpu7.interrupts.clk_domain.clock         3200                       # Clock period in ticks (Tick)
system.o3Cpu7.lsq0.forwLoads                    10590                       # Number of loads that had data forwarded from stores (Count)
system.o3Cpu7.lsq0.squashedLoads               307612                       # Number of loads squashed (Count)
system.o3Cpu7.lsq0.ignoredResponses                 3                       # Number of memory responses ignored because the instruction is squashed (Count)
system.o3Cpu7.lsq0.memOrderViolation              514                       # Number of memory ordering violations (Count)
system.o3Cpu7.lsq0.squashedStores               28918                       # Number of stores squashed (Count)
system.o3Cpu7.lsq0.rescheduledLoads                85                       # Number of loads that were rescheduled (Count)
system.o3Cpu7.lsq0.blockedByCache                   4                       # Number of times an access to memory failed due to the cache being blocked (Count)
system.o3Cpu7.lsq0.loadToUse::samples         6757320                       # Distribution of cycle latency between the first time a load is issued and its completion (Unspecified)
system.o3Cpu7.lsq0.loadToUse::mean         296.094167                       # Distribution of cycle latency between the first time a load is issued and its completion (Unspecified)
system.o3Cpu7.lsq0.loadToUse::stdev        450.085879                       # Distribution of cycle latency between the first time a load is issued and its completion (Unspecified)
system.o3Cpu7.lsq0.loadToUse::0-9             2579221     38.17%     38.17% # Distribution of cycle latency between the first time a load is issued and its completion (Unspecified)
system.o3Cpu7.lsq0.loadToUse::10-19            868835     12.86%     51.03% # Distribution of cycle latency between the first time a load is issued and its completion (Unspecified)
system.o3Cpu7.lsq0.loadToUse::20-29            518490      7.67%     58.70% # Distribution of cycle latency between the first time a load is issued and its completion (Unspecified)
system.o3Cpu7.lsq0.loadToUse::30-39            132830      1.97%     60.67% # Distribution of cycle latency between the first time a load is issued and its completion (Unspecified)
system.o3Cpu7.lsq0.loadToUse::40-49             53744      0.80%     61.46% # Distribution of cycle latency between the first time a load is issued and its completion (Unspecified)
system.o3Cpu7.lsq0.loadToUse::50-59             25596      0.38%     61.84% # Distribution of cycle latency between the first time a load is issued and its completion (Unspecified)
system.o3Cpu7.lsq0.loadToUse::60-69             14017      0.21%     62.05% # Distribution of cycle latency between the first time a load is issued and its completion (Unspecified)
system.o3Cpu7.lsq0.loadToUse::70-79             17469      0.26%     62.31% # Distribution of cycle latency between the first time a load is issued and its completion (Unspecified)
system.o3Cpu7.lsq0.loadToUse::80-89             16383      0.24%     62.55% # Distribution of cycle latency between the first time a load is issued and its completion (Unspecified)
system.o3Cpu7.lsq0.loadToUse::90-99             13783      0.20%     62.75% # Distribution of cycle latency between the first time a load is issued and its completion (Unspecified)
system.o3Cpu7.lsq0.loadToUse::100-109            8067      0.12%     62.87% # Distribution of cycle latency between the first time a load is issued and its completion (Unspecified)
system.o3Cpu7.lsq0.loadToUse::110-119            3635      0.05%     62.93% # Distribution of cycle latency between the first time a load is issued and its completion (Unspecified)
system.o3Cpu7.lsq0.loadToUse::120-129            9018      0.13%     63.06% # Distribution of cycle latency between the first time a load is issued and its completion (Unspecified)
system.o3Cpu7.lsq0.loadToUse::130-139           11899      0.18%     63.23% # Distribution of cycle latency between the first time a load is issued and its completion (Unspecified)
system.o3Cpu7.lsq0.loadToUse::140-149           11280      0.17%     63.40% # Distribution of cycle latency between the first time a load is issued and its completion (Unspecified)
system.o3Cpu7.lsq0.loadToUse::150-159            7181      0.11%     63.51% # Distribution of cycle latency between the first time a load is issued and its completion (Unspecified)
system.o3Cpu7.lsq0.loadToUse::160-169            3956      0.06%     63.57% # Distribution of cycle latency between the first time a load is issued and its completion (Unspecified)
system.o3Cpu7.lsq0.loadToUse::170-179            8442      0.12%     63.69% # Distribution of cycle latency between the first time a load is issued and its completion (Unspecified)
system.o3Cpu7.lsq0.loadToUse::180-189           10783      0.16%     63.85% # Distribution of cycle latency between the first time a load is issued and its completion (Unspecified)
system.o3Cpu7.lsq0.loadToUse::190-199           10522      0.16%     64.01% # Distribution of cycle latency between the first time a load is issued and its completion (Unspecified)
system.o3Cpu7.lsq0.loadToUse::200-209            7336      0.11%     64.12% # Distribution of cycle latency between the first time a load is issued and its completion (Unspecified)
system.o3Cpu7.lsq0.loadToUse::210-219            4698      0.07%     64.18% # Distribution of cycle latency between the first time a load is issued and its completion (Unspecified)
system.o3Cpu7.lsq0.loadToUse::220-229            8647      0.13%     64.31% # Distribution of cycle latency between the first time a load is issued and its completion (Unspecified)
system.o3Cpu7.lsq0.loadToUse::230-239           11140      0.16%     64.48% # Distribution of cycle latency between the first time a load is issued and its completion (Unspecified)
system.o3Cpu7.lsq0.loadToUse::240-249           10924      0.16%     64.64% # Distribution of cycle latency between the first time a load is issued and its completion (Unspecified)
system.o3Cpu7.lsq0.loadToUse::250-259            8060      0.12%     64.76% # Distribution of cycle latency between the first time a load is issued and its completion (Unspecified)
system.o3Cpu7.lsq0.loadToUse::260-269            5860      0.09%     64.85% # Distribution of cycle latency between the first time a load is issued and its completion (Unspecified)
system.o3Cpu7.lsq0.loadToUse::270-279           10406      0.15%     65.00% # Distribution of cycle latency between the first time a load is issued and its completion (Unspecified)
system.o3Cpu7.lsq0.loadToUse::280-289           14165      0.21%     65.21% # Distribution of cycle latency between the first time a load is issued and its completion (Unspecified)
system.o3Cpu7.lsq0.loadToUse::290-299           12849      0.19%     65.40% # Distribution of cycle latency between the first time a load is issued and its completion (Unspecified)
system.o3Cpu7.lsq0.loadToUse::overflows       2338084     34.60%    100.00% # Distribution of cycle latency between the first time a load is issued and its completion (Unspecified)
system.o3Cpu7.lsq0.loadToUse::min_value             2                       # Distribution of cycle latency between the first time a load is issued and its completion (Unspecified)
system.o3Cpu7.lsq0.loadToUse::max_value          9305                       # Distribution of cycle latency between the first time a load is issued and its completion (Unspecified)
system.o3Cpu7.lsq0.loadToUse::total           6757320                       # Distribution of cycle latency between the first time a load is issued and its completion (Unspecified)
system.o3Cpu7.mmu.dtb.rdAccesses              7515204                       # TLB accesses on read requests (Count)
system.o3Cpu7.mmu.dtb.wrAccesses               163408                       # TLB accesses on write requests (Count)
system.o3Cpu7.mmu.dtb.rdMisses                 380394                       # TLB misses on read requests (Count)
system.o3Cpu7.mmu.dtb.wrMisses                  10538                       # TLB misses on write requests (Count)
system.o3Cpu7.mmu.dtb.walker.power_state.pwrStateResidencyTicks::UNDEFINED  87305436400                       # Cumulative time (in ticks) in various power states (Tick)
system.o3Cpu7.mmu.itb.rdAccesses                    0                       # TLB accesses on read requests (Count)
system.o3Cpu7.mmu.itb.wrAccesses               632526                       # TLB accesses on write requests (Count)
system.o3Cpu7.mmu.itb.rdMisses                      0                       # TLB misses on read requests (Count)
system.o3Cpu7.mmu.itb.wrMisses                    381                       # TLB misses on write requests (Count)
system.o3Cpu7.mmu.itb.walker.power_state.pwrStateResidencyTicks::UNDEFINED  87305436400                       # Cumulative time (in ticks) in various power states (Tick)
system.o3Cpu7.power_state.pwrStateResidencyTicks::OFF  87305436400                       # Cumulative time (in ticks) in various power states (Tick)
system.o3Cpu7.rename.squashCycles              118433                       # Number of cycles rename is squashing (Cycle)
system.o3Cpu7.rename.idleCycles               2982739                       # Number of cycles rename is idle (Cycle)
system.o3Cpu7.rename.blockCycles            137821369                       # Number of cycles rename is blocking (Cycle)
system.o3Cpu7.rename.serializeStallCycles       792406                       # count of cycles rename stalled for serializing inst (Cycle)
system.o3Cpu7.rename.runCycles                8175454                       # Number of cycles rename is running (Cycle)
system.o3Cpu7.rename.unblockCycles          281405398                       # Number of cycles rename is unblocking (Cycle)
system.o3Cpu7.rename.renamedInsts            36971213                       # Number of instructions processed by rename (Count)
system.o3Cpu7.rename.ROBFullEvents            2263577                       # Number of times rename has blocked due to ROB full (Count)
system.o3Cpu7.rename.IQFullEvents             8265330                       # Number of times rename has blocked due to IQ full (Count)
system.o3Cpu7.rename.LQFullEvents           278750226                       # Number of times rename has blocked due to LQ full (Count)
system.o3Cpu7.rename.SQFullEvents              307483                       # Number of times rename has blocked due to SQ full (Count)
system.o3Cpu7.rename.renamedOperands         68290677                       # Number of destination operands rename has renamed (Count)
system.o3Cpu7.rename.lookups                119792040                       # Number of register rename lookups that rename has made (Count)
system.o3Cpu7.rename.intLookups              36029437                       # Number of integer rename lookups (Count)
system.o3Cpu7.rename.fpLookups               12764755                       # Number of floating rename lookups (Count)
system.o3Cpu7.rename.committedMaps           64439712                       # Number of HB maps that are committed (Count)
system.o3Cpu7.rename.undoneMaps               3850828                       # Number of HB maps that are undone due to squashing (Count)
system.o3Cpu7.rename.serializing                 3236                       # count of serializing insts renamed (Count)
system.o3Cpu7.rename.tempSerializing             3232                       # count of temporary serializing insts renamed (Count)
system.o3Cpu7.rename.skidInsts                7864608                       # count of insts added to the skid buffer (Count)
system.o3Cpu7.rob.reads                     459449226                       # The number of ROB reads (Count)
system.o3Cpu7.rob.writes                     73383139                       # The number of ROB writes (Count)
system.o3Cpu7.thread_0.numInsts              17717404                       # Number of Instructions committed (Count)
system.o3Cpu7.thread_0.numOps                34733301                       # Number of Ops committed (Count)
system.o3Cpu7.thread_0.numMemRefs                   0                       # Number of Memory References (Count)
system.pc.bad_addr.power_state.pwrStateResidencyTicks::UNDEFINED  87305436400                       # Cumulative time (in ticks) in various power states (Tick)
system.pc.com_1.power_state.pwrStateResidencyTicks::UNDEFINED  87305436400                       # Cumulative time (in ticks) in various power states (Tick)
system.pc.default_bus.power_state.pwrStateResidencyTicks::UNDEFINED  87305436400                       # Cumulative time (in ticks) in various power states (Tick)
system.pc.empty_isa.power_state.pwrStateResidencyTicks::UNDEFINED  87305436400                       # Cumulative time (in ticks) in various power states (Tick)
system.pc.fake_com_2.power_state.pwrStateResidencyTicks::UNDEFINED  87305436400                       # Cumulative time (in ticks) in various power states (Tick)
system.pc.fake_com_3.power_state.pwrStateResidencyTicks::UNDEFINED  87305436400                       # Cumulative time (in ticks) in various power states (Tick)
system.pc.fake_com_4.power_state.pwrStateResidencyTicks::UNDEFINED  87305436400                       # Cumulative time (in ticks) in various power states (Tick)
system.pc.fake_floppy.power_state.pwrStateResidencyTicks::UNDEFINED  87305436400                       # Cumulative time (in ticks) in various power states (Tick)
system.pc.pci_host.power_state.pwrStateResidencyTicks::UNDEFINED  87305436400                       # Cumulative time (in ticks) in various power states (Tick)
system.pc.south_bridge.cmos.power_state.pwrStateResidencyTicks::UNDEFINED  87305436400                       # Cumulative time (in ticks) in various power states (Tick)
system.pc.south_bridge.dma1.power_state.pwrStateResidencyTicks::UNDEFINED  87305436400                       # Cumulative time (in ticks) in various power states (Tick)
system.pc.south_bridge.ide.disks0.IdeDisk.dmaReadFullPages            0                       # Number of full page size DMA reads (not PRD). (Count)
system.pc.south_bridge.ide.disks0.IdeDisk.dmaReadBytes            0                       # Number of bytes transfered via DMA reads (not PRD). (Byte)
system.pc.south_bridge.ide.disks0.IdeDisk.dmaReadTxs            0                       # Number of DMA read transactions (not PRD). (Count)
system.pc.south_bridge.ide.disks0.IdeDisk.dmaWriteFullPages            0                       # Number of full page size DMA writes. (Count)
system.pc.south_bridge.ide.disks0.IdeDisk.dmaWriteBytes            0                       # Number of bytes transfered via DMA writes. (Byte)
system.pc.south_bridge.ide.disks0.IdeDisk.dmaWriteTxs            0                       # Number of DMA write transactions. (Count)
system.pc.south_bridge.ide.disks1.IdeDisk.dmaReadFullPages            0                       # Number of full page size DMA reads (not PRD). (Count)
system.pc.south_bridge.ide.disks1.IdeDisk.dmaReadBytes            0                       # Number of bytes transfered via DMA reads (not PRD). (Byte)
system.pc.south_bridge.ide.disks1.IdeDisk.dmaReadTxs            0                       # Number of DMA read transactions (not PRD). (Count)
system.pc.south_bridge.ide.disks1.IdeDisk.dmaWriteFullPages            0                       # Number of full page size DMA writes. (Count)
system.pc.south_bridge.ide.disks1.IdeDisk.dmaWriteBytes            0                       # Number of bytes transfered via DMA writes. (Byte)
system.pc.south_bridge.ide.disks1.IdeDisk.dmaWriteTxs            0                       # Number of DMA write transactions. (Count)
system.pc.south_bridge.ide.power_state.pwrStateResidencyTicks::UNDEFINED  87305436400                       # Cumulative time (in ticks) in various power states (Tick)
system.pc.south_bridge.io_apic.power_state.pwrStateResidencyTicks::UNDEFINED  87305436400                       # Cumulative time (in ticks) in various power states (Tick)
system.pc.south_bridge.keyboard.power_state.pwrStateResidencyTicks::UNDEFINED  87305436400                       # Cumulative time (in ticks) in various power states (Tick)
system.pc.south_bridge.pic1.power_state.pwrStateResidencyTicks::UNDEFINED  87305436400                       # Cumulative time (in ticks) in various power states (Tick)
system.pc.south_bridge.pic2.power_state.pwrStateResidencyTicks::UNDEFINED  87305436400                       # Cumulative time (in ticks) in various power states (Tick)
system.pc.south_bridge.pit.power_state.pwrStateResidencyTicks::UNDEFINED  87305436400                       # Cumulative time (in ticks) in various power states (Tick)
system.pc.south_bridge.speaker.power_state.pwrStateResidencyTicks::UNDEFINED  87305436400                       # Cumulative time (in ticks) in various power states (Tick)
system.workload.inst.arm                            0                       # number of arm instructions executed (Count)
system.workload.inst.quiesce                        0                       # number of quiesce instructions executed (Count)

---------- End Simulation Statistics   ----------
