
---------- Begin Simulation Statistics ----------
simSeconds                                   0.090532                       # Number of seconds simulated (Second)
simTicks                                  90531729500                       # Number of ticks simulated (Tick)
finalTick                                2997425029354200                       # Number of ticks from beginning of simulation (restored from checkpoints and never reset) (Tick)
simFreq                                  1000000000000                       # The number of ticks per simulated second ((Tick/Second))
hostSeconds                                   9488.35                       # Real time elapsed on the host (Second)
hostTickRate                                  9541355                       # The number of ticks simulated per host second (ticks/s) ((Tick/Second))
hostMemory                                   71999836                       # Number of bytes of host memory used (Byte)
simInsts                                    200316746                       # Number of instructions simulated (Count)
simOps                                      343173644                       # Number of ops (including micro ops) simulated (Count)
hostInstRate                                    21112                       # Simulator instruction rate (inst/s) ((Count/Second))
hostOpRate                                      36168                       # Simulator op (including micro ops) rate (op/s) ((Count/Second))
system.caches.delayHistogram::bucket_size           64                       # delay histogram for all message (Unspecified)
system.caches.delayHistogram::max_bucket          639                       # delay histogram for all message (Unspecified)
system.caches.delayHistogram::samples        83205502                       # delay histogram for all message (Unspecified)
system.caches.delayHistogram::mean           0.281932                       # delay histogram for all message (Unspecified)
system.caches.delayHistogram::stdev          1.371928                       # delay histogram for all message (Unspecified)
system.caches.delayHistogram             |    83205442    100.00%    100.00% |          51      0.00%    100.00% |           4      0.00%    100.00% |           1      0.00%    100.00% |           2      0.00%    100.00% |           1      0.00%    100.00% |           0      0.00%    100.00% |           1      0.00%    100.00% |           0      0.00%    100.00% |           0      0.00%    100.00% # delay histogram for all message (Unspecified)
system.caches.delayHistogram::total          83205502                       # delay histogram for all message (Unspecified)
system.caches.m_outstandReqHistSeqr::bucket_size            2                       (Unspecified)
system.caches.m_outstandReqHistSeqr::max_bucket           19                       (Unspecified)
system.caches.m_outstandReqHistSeqr::samples    133881513                       (Unspecified)
system.caches.m_outstandReqHistSeqr::mean     2.947137                       (Unspecified)
system.caches.m_outstandReqHistSeqr::gmean     2.546025                       (Unspecified)
system.caches.m_outstandReqHistSeqr::stdev     1.576036                       (Unspecified)
system.caches.m_outstandReqHistSeqr      |    24013135     17.94%     17.94% |    69936010     52.24%     70.17% |    30584780     22.84%     93.02% |     8224869      6.14%     99.16% |      847651      0.63%     99.79% |      221051      0.17%     99.96% |       31207      0.02%     99.98% |       22237      0.02%    100.00% |         573      0.00%    100.00% |           0      0.00%    100.00% (Unspecified)
system.caches.m_outstandReqHistSeqr::total    133881513                       (Unspecified)
system.caches.m_latencyHistSeqr::bucket_size          512                       (Unspecified)
system.caches.m_latencyHistSeqr::max_bucket         5119                       (Unspecified)
system.caches.m_latencyHistSeqr::samples    133890412                       (Unspecified)
system.caches.m_latencyHistSeqr::mean       47.377837                       (Unspecified)
system.caches.m_latencyHistSeqr::gmean       1.696598                       (Unspecified)
system.caches.m_latencyHistSeqr::stdev     199.060214                       (Unspecified)
system.caches.m_latencyHistSeqr          |   127072444     94.91%     94.91% |     5675100      4.24%     99.15% |      763494      0.57%     99.72% |      277814      0.21%     99.92% |       75870      0.06%     99.98% |       23781      0.02%    100.00% |        1741      0.00%    100.00% |         145      0.00%    100.00% |          22      0.00%    100.00% |           1      0.00%    100.00% (Unspecified)
system.caches.m_latencyHistSeqr::total      133890412                       (Unspecified)
system.caches.m_hitLatencyHistSeqr::bucket_size          512                       (Unspecified)
system.caches.m_hitLatencyHistSeqr::max_bucket         5119                       (Unspecified)
system.caches.m_hitLatencyHistSeqr::samples    119205102                       (Unspecified)
system.caches.m_hitLatencyHistSeqr::mean     1.008123                       (Unspecified)
system.caches.m_hitLatencyHistSeqr::gmean     1.000432                       (Unspecified)
system.caches.m_hitLatencyHistSeqr::stdev     2.882674                       (Unspecified)
system.caches.m_hitLatencyHistSeqr       |   119204170    100.00%    100.00% |         681      0.00%    100.00% |         154      0.00%    100.00% |          69      0.00%    100.00% |          16      0.00%    100.00% |          12      0.00%    100.00% |           0      0.00%    100.00% |           0      0.00%    100.00% |           0      0.00%    100.00% |           0      0.00%    100.00% (Unspecified)
system.caches.m_hitLatencyHistSeqr::total    119205102                       (Unspecified)
system.caches.m_missLatencyHistSeqr::bucket_size          512                       (Unspecified)
system.caches.m_missLatencyHistSeqr::max_bucket         5119                       (Unspecified)
system.caches.m_missLatencyHistSeqr::samples     14685310                       (Unspecified)
system.caches.m_missLatencyHistSeqr::mean   423.774825                       (Unspecified)
system.caches.m_missLatencyHistSeqr::gmean   123.486743                       (Unspecified)
system.caches.m_missLatencyHistSeqr::stdev   449.530054                       (Unspecified)
system.caches.m_missLatencyHistSeqr      |     7868274     53.58%     53.58% |     5674419     38.64%     92.22% |      763340      5.20%     97.42% |      277745      1.89%     99.31% |       75854      0.52%     99.83% |       23769      0.16%     99.99% |        1741      0.01%    100.00% |         145      0.00%    100.00% |          22      0.00%    100.00% |           1      0.00%    100.00% (Unspecified)
system.caches.m_missLatencyHistSeqr::total     14685310                       (Unspecified)
system.caches.delayVCHist.vnet_0::bucket_size           64                       # delay histogram for vnet_0 (Unspecified)
system.caches.delayVCHist.vnet_0::max_bucket          639                       # delay histogram for vnet_0 (Unspecified)
system.caches.delayVCHist.vnet_0::samples     34115295                       # delay histogram for vnet_0 (Unspecified)
system.caches.delayVCHist.vnet_0::mean       0.268993                       # delay histogram for vnet_0 (Unspecified)
system.caches.delayVCHist.vnet_0::stdev      1.454362                       # delay histogram for vnet_0 (Unspecified)
system.caches.delayVCHist.vnet_0         |    34115235    100.00%    100.00% |          51      0.00%    100.00% |           4      0.00%    100.00% |           1      0.00%    100.00% |           2      0.00%    100.00% |           1      0.00%    100.00% |           0      0.00%    100.00% |           1      0.00%    100.00% |           0      0.00%    100.00% |           0      0.00%    100.00% # delay histogram for vnet_0 (Unspecified)
system.caches.delayVCHist.vnet_0::total      34115295                       # delay histogram for vnet_0 (Unspecified)
system.caches.delayVCHist.vnet_1::bucket_size            4                       # delay histogram for vnet_1 (Unspecified)
system.caches.delayVCHist.vnet_1::max_bucket           39                       # delay histogram for vnet_1 (Unspecified)
system.caches.delayVCHist.vnet_1::samples     44261287                       # delay histogram for vnet_1 (Unspecified)
system.caches.delayVCHist.vnet_1::mean       0.322609                       # delay histogram for vnet_1 (Unspecified)
system.caches.delayVCHist.vnet_1::stdev      1.377471                       # delay histogram for vnet_1 (Unspecified)
system.caches.delayVCHist.vnet_1         |    42331434     95.64%     95.64% |     1381140      3.12%     98.76% |      466123      1.05%     99.81% |       68523      0.15%     99.97% |       13871      0.03%    100.00% |         164      0.00%    100.00% |          32      0.00%    100.00% |           0      0.00%    100.00% |           0      0.00%    100.00% |           0      0.00%    100.00% # delay histogram for vnet_1 (Unspecified)
system.caches.delayVCHist.vnet_1::total      44261287                       # delay histogram for vnet_1 (Unspecified)
system.caches.delayVCHist.vnet_2::bucket_size            1                       # delay histogram for vnet_2 (Unspecified)
system.caches.delayVCHist.vnet_2::max_bucket            9                       # delay histogram for vnet_2 (Unspecified)
system.caches.delayVCHist.vnet_2::samples      4828920                       # delay histogram for vnet_2 (Unspecified)
system.caches.delayVCHist.vnet_2::mean       0.000493                       # delay histogram for vnet_2 (Unspecified)
system.caches.delayVCHist.vnet_2::stdev      0.031392                       # delay histogram for vnet_2 (Unspecified)
system.caches.delayVCHist.vnet_2         |     4827730     99.98%     99.98% |           0      0.00%     99.98% |        1190      0.02%    100.00% |           0      0.00%    100.00% |           0      0.00%    100.00% |           0      0.00%    100.00% |           0      0.00%    100.00% |           0      0.00%    100.00% |           0      0.00%    100.00% |           0      0.00%    100.00% # delay histogram for vnet_2 (Unspecified)
system.caches.delayVCHist.vnet_2::total       4828920                       # delay histogram for vnet_2 (Unspecified)
system.caches.L1Cache_Controller.Load    |    11912594     12.27%     12.27% |    12052302     12.41%     24.68% |    12379890     12.75%     37.42% |    12146712     12.51%     49.93% |    12024552     12.38%     62.31% |    12283741     12.65%     74.96% |    12157750     12.52%     87.48% |    12159980     12.52%    100.00% (Unspecified)
system.caches.L1Cache_Controller.Load::total     97117521                       (Unspecified)
system.caches.L1Cache_Controller.Ifetch  |     4251300     12.72%     12.72% |     4105252     12.29%     25.01% |     4234460     12.67%     37.68% |     4140186     12.39%     50.07% |     4166438     12.47%     62.54% |     4212508     12.61%     75.15% |     4156042     12.44%     87.59% |     4147998     12.41%    100.00% (Unspecified)
system.caches.L1Cache_Controller.Ifetch::total     33414184                       (Unspecified)
system.caches.L1Cache_Controller.Store   |      453333     13.50%     13.50% |      405470     12.07%     25.57% |      430830     12.83%     38.40% |      411244     12.24%     50.64% |      426538     12.70%     63.34% |      416720     12.41%     75.75% |      414173     12.33%     88.08% |      400435     11.92%    100.00% (Unspecified)
system.caches.L1Cache_Controller.Store::total      3358743                       (Unspecified)
system.caches.L1Cache_Controller.Inv     |      479963     12.71%     12.71% |      473505     12.54%     25.26% |      473568     12.54%     37.80% |      470146     12.45%     50.25% |      468605     12.41%     62.67% |      469487     12.44%     75.10% |      470799     12.47%     87.57% |      469197     12.43%    100.00% (Unspecified)
system.caches.L1Cache_Controller.Inv::total      3775270                       (Unspecified)
system.caches.L1Cache_Controller.L1_Replacement |     1834409     12.65%     12.65% |     1795585     12.38%     25.03% |     1832522     12.64%     37.67% |     1797628     12.40%     50.06% |     1800597     12.42%     62.48% |     1822665     12.57%     75.05% |     1799329     12.41%     87.46% |     1819062     12.54%    100.00% (Unspecified)
system.caches.L1Cache_Controller.L1_Replacement::total     14501797                       (Unspecified)
system.caches.L1Cache_Controller.Fwd_GETX |          56      8.45%      8.45% |          92     13.88%     22.32% |         103     15.54%     37.86% |          34      5.13%     42.99% |          79     11.92%     54.90% |          45      6.79%     61.69% |         146     22.02%     83.71% |         108     16.29%    100.00% (Unspecified)
system.caches.L1Cache_Controller.Fwd_GETX::total          663                       (Unspecified)
system.caches.L1Cache_Controller.Fwd_GETS |      136804     12.99%     12.99% |      131551     12.49%     25.49% |      131922     12.53%     38.01% |      130955     12.44%     50.45% |      131109     12.45%     62.90% |      130556     12.40%     75.30% |      129508     12.30%     87.60% |      130582     12.40%    100.00% (Unspecified)
system.caches.L1Cache_Controller.Fwd_GETS::total      1052987                       (Unspecified)
system.caches.L1Cache_Controller.Data    |          68     70.83%     70.83% |           2      2.08%     72.92% |           4      4.17%     77.08% |           6      6.25%     83.33% |           4      4.17%     87.50% |           4      4.17%     91.67% |           2      2.08%     93.75% |           6      6.25%    100.00% (Unspecified)
system.caches.L1Cache_Controller.Data::total           96                       (Unspecified)
system.caches.L1Cache_Controller.Data_Exclusive |     1200979     12.67%     12.67% |     1176904     12.42%     25.08% |     1195461     12.61%     37.69% |     1172803     12.37%     50.07% |     1173154     12.38%     62.44% |     1195124     12.61%     75.05% |     1171543     12.36%     87.41% |     1193719     12.59%    100.00% (Unspecified)
system.caches.L1Cache_Controller.Data_Exclusive::total      9479687                       (Unspecified)
system.caches.L1Cache_Controller.DataS_fromL1 |      132709     12.60%     12.60% |      134330     12.76%     25.36% |      133379     12.67%     38.03% |      129167     12.27%     50.29% |      130581     12.40%     62.69% |      131018     12.44%     75.14% |      132602     12.59%     87.73% |      129201     12.27%    100.00% (Unspecified)
system.caches.L1Cache_Controller.DataS_fromL1::total      1052987                       (Unspecified)
system.caches.L1Cache_Controller.Data_all_Acks |      517612     12.60%     12.60% |      501529     12.21%     24.82% |      520705     12.68%     37.50% |      513273     12.50%     49.99% |      513829     12.51%     62.51% |      514070     12.52%     75.02% |      512835     12.49%     87.51% |      512869     12.49%    100.00% (Unspecified)
system.caches.L1Cache_Controller.Data_all_Acks::total      4106722                       (Unspecified)
system.caches.L1Cache_Controller.Ack     |       13988     14.16%     14.16% |       11711     11.85%     26.01% |       12352     12.50%     38.51% |       11742     11.88%     50.39% |       12184     12.33%     62.72% |       12271     12.42%     75.14% |       12066     12.21%     87.35% |       12495     12.65%    100.00% (Unspecified)
system.caches.L1Cache_Controller.Ack::total        98809                       (Unspecified)
system.caches.L1Cache_Controller.Ack_all |        6302     13.73%     13.73% |        5684     12.38%     26.11% |        5769     12.56%     38.67% |        5432     11.83%     50.50% |        5539     12.06%     62.56% |        5738     12.50%     75.06% |        5645     12.29%     87.36% |        5805     12.64%    100.00% (Unspecified)
system.caches.L1Cache_Controller.Ack_all::total        45914                       (Unspecified)
system.caches.L1Cache_Controller.WB_Ack  |     1080663     12.71%     12.71% |     1052378     12.37%     25.08% |     1074939     12.64%     37.72% |     1049249     12.34%     50.05% |     1051106     12.36%     62.41% |     1074500     12.63%     75.05% |     1050098     12.35%     87.39% |     1072370     12.61%    100.00% (Unspecified)
system.caches.L1Cache_Controller.WB_Ack::total      8505303                       (Unspecified)
system.caches.L1Cache_Controller.NP.Load |     1766163     12.61%     12.61% |     1737776     12.40%     25.01% |     1769589     12.63%     37.64% |     1735983     12.39%     50.03% |     1739490     12.42%     62.44% |     1762546     12.58%     75.02% |     1738717     12.41%     87.43% |     1760556     12.57%    100.00% (Unspecified)
system.caches.L1Cache_Controller.NP.Load::total     14010820                       (Unspecified)
system.caches.L1Cache_Controller.NP.Ifetch |       23641     15.37%     15.37% |       17323     11.26%     26.63% |       20246     13.16%     39.80% |       19759     12.85%     52.64% |       19234     12.51%     65.15% |       17605     11.45%     76.60% |       18629     12.11%     88.71% |       17369     11.29%    100.00% (Unspecified)
system.caches.L1Cache_Controller.NP.Ifetch::total       153806                       (Unspecified)
system.caches.L1Cache_Controller.NP.Store |       44692     13.24%     13.24% |       40533     12.01%     25.25% |       42701     12.65%     37.90% |       41949     12.43%     50.33% |       41906     12.42%     62.75% |       42560     12.61%     75.36% |       41994     12.44%     87.80% |       41174     12.20%    100.00% (Unspecified)
system.caches.L1Cache_Controller.NP.Store::total       337509                       (Unspecified)
system.caches.L1Cache_Controller.NP.Inv  |      411242     12.74%     12.74% |      403732     12.51%     25.26% |      406677     12.60%     37.86% |      400024     12.40%     50.25% |      400103     12.40%     62.65% |      402094     12.46%     75.11% |      401038     12.43%     87.54% |      402034     12.46%    100.00% (Unspecified)
system.caches.L1Cache_Controller.NP.Inv::total      3226944                       (Unspecified)
system.caches.L1Cache_Controller.I.Load  |        7463     12.77%     12.77% |        7276     12.45%     25.21% |        7260     12.42%     37.63% |        7889     13.50%     51.13% |        6916     11.83%     62.96% |        7301     12.49%     75.45% |        7694     13.16%     88.61% |        6656     11.39%    100.00% (Unspecified)
system.caches.L1Cache_Controller.I.Load::total        58455                       (Unspecified)
system.caches.L1Cache_Controller.I.Ifetch |        8348     11.88%     11.88% |        8761     12.47%     24.36% |        8659     12.33%     36.68% |        8593     12.23%     48.92% |        8935     12.72%     61.63% |        9163     13.04%     74.68% |        8886     12.65%     87.33% |        8901     12.67%    100.00% (Unspecified)
system.caches.L1Cache_Controller.I.Ifetch::total        70246                       (Unspecified)
system.caches.L1Cache_Controller.I.Store |        1062     12.26%     12.26% |        1098     12.68%     24.94% |        1094     12.63%     37.58% |        1076     12.42%     50.00% |        1089     12.58%     62.58% |        1041     12.02%     74.60% |        1061     12.25%     86.85% |        1139     13.15%    100.00% (Unspecified)
system.caches.L1Cache_Controller.I.Store::total         8660                       (Unspecified)
system.caches.L1Cache_Controller.I.L1_Replacement |       51754     11.88%     11.88% |       56149     12.89%     24.76% |       53455     12.27%     37.03% |       56081     12.87%     49.90% |       55029     12.63%     62.53% |       53423     12.26%     74.79% |       55755     12.80%     87.59% |       54089     12.41%    100.00% (Unspecified)
system.caches.L1Cache_Controller.I.L1_Replacement::total       435735                       (Unspecified)
system.caches.L1Cache_Controller.S.Load  |     3678156     11.58%     11.58% |     4008162     12.62%     24.19% |     4131568     13.01%     37.20% |     4040128     12.72%     49.92% |     3607193     11.35%     61.27% |     4186778     13.18%     74.45% |     4091117     12.88%     87.33% |     4025892     12.67%    100.00% (Unspecified)
system.caches.L1Cache_Controller.S.Load::total     31768994                       (Unspecified)
system.caches.L1Cache_Controller.S.Ifetch |     4219311     12.71%     12.71% |     4079168     12.29%     25.00% |     4205555     12.67%     37.67% |     4111834     12.39%     50.06% |     4138269     12.47%     62.53% |     4185740     12.61%     75.14% |     4128527     12.44%     87.58% |     4121728     12.42%    100.00% (Unspecified)
system.caches.L1Cache_Controller.S.Ifetch::total     33190132                       (Unspecified)
system.caches.L1Cache_Controller.S.Store |        6234     13.60%     13.60% |        5683     12.40%     26.00% |        5766     12.58%     38.59% |        5427     11.84%     50.43% |        5536     12.08%     62.51% |        5735     12.51%     75.02% |        5646     12.32%     87.34% |        5800     12.66%    100.00% (Unspecified)
system.caches.L1Cache_Controller.S.Store::total        45827                       (Unspecified)
system.caches.L1Cache_Controller.S.Inv   |       31704     12.71%     12.71% |       31699     12.70%     25.41% |       30999     12.42%     37.83% |       31402     12.59%     50.42% |       31289     12.54%     62.96% |       30302     12.14%     75.10% |       31416     12.59%     87.69% |       30708     12.31%    100.00% (Unspecified)
system.caches.L1Cache_Controller.S.Inv::total       249519                       (Unspecified)
system.caches.L1Cache_Controller.S.L1_Replacement |      701989     12.62%     12.62% |      687057     12.36%     24.98% |      704122     12.66%     37.64% |      692292     12.45%     50.09% |      694458     12.49%     62.58% |      694737     12.49%     75.07% |      693471     12.47%     87.54% |      692601     12.46%    100.00% (Unspecified)
system.caches.L1Cache_Controller.S.L1_Replacement::total      5560727                       (Unspecified)
system.caches.L1Cache_Controller.E.Load  |     3407189     12.74%     12.74% |     3277599     12.25%     24.99% |     3506413     13.11%     38.10% |     3277693     12.25%     50.36% |     3567195     13.34%     63.70% |     3130053     11.70%     75.40% |     3207767     11.99%     87.39% |     3372284     12.61%    100.00% (Unspecified)
system.caches.L1Cache_Controller.E.Load::total     26746193                       (Unspecified)
system.caches.L1Cache_Controller.E.Store |       72798     12.80%     12.80% |       70183     12.34%     25.14% |       71004     12.49%     37.63% |       70036     12.32%     49.95% |       70249     12.35%     62.30% |       72116     12.68%     74.98% |       69938     12.30%     87.28% |       72324     12.72%    100.00% (Unspecified)
system.caches.L1Cache_Controller.E.Store::total       568648                       (Unspecified)
system.caches.L1Cache_Controller.E.Inv   |       27422     12.22%     12.22% |       28779     12.82%     25.04% |       27319     12.17%     37.21% |       28931     12.89%     50.10% |       28504     12.70%     62.80% |       27301     12.16%     74.96% |       28545     12.72%     87.68% |       27664     12.32%    100.00% (Unspecified)
system.caches.L1Cache_Controller.E.Inv::total       224465                       (Unspecified)
system.caches.L1Cache_Controller.E.L1_Replacement |      967545     12.64%     12.64% |      948688     12.40%     25.04% |      967543     12.64%     37.68% |      945045     12.35%     50.03% |      945798     12.36%     62.39% |      967477     12.64%     75.03% |      945857     12.36%     87.39% |      965377     12.61%    100.00% (Unspecified)
system.caches.L1Cache_Controller.E.L1_Replacement::total      7653330                       (Unspecified)
system.caches.L1Cache_Controller.E.Fwd_GETX |           7     14.58%     14.58% |          13     27.08%     41.67% |           4      8.33%     50.00% |           3      6.25%     56.25% |           1      2.08%     58.33% |           3      6.25%     64.58% |          12     25.00%     89.58% |           5     10.42%    100.00% (Unspecified)
system.caches.L1Cache_Controller.E.Fwd_GETX::total           48                       (Unspecified)
system.caches.L1Cache_Controller.E.Fwd_GETS |      131300     12.91%     12.91% |      127248     12.51%     25.42% |      127538     12.54%     37.96% |      126658     12.45%     50.42% |      126618     12.45%     62.87% |      126166     12.41%     75.28% |      125192     12.31%     87.59% |      126236     12.41%    100.00% (Unspecified)
system.caches.L1Cache_Controller.E.Fwd_GETS::total      1016956                       (Unspecified)
system.caches.L1Cache_Controller.M.Load  |     3053621     12.45%     12.45% |     3021489     12.32%     24.76% |     2965059     12.09%     36.85% |     3085018     12.57%     49.42% |     3103756     12.65%     62.08% |     3197063     13.03%     75.11% |     3112454     12.69%     87.79% |     2994592     12.21%    100.00% (Unspecified)
system.caches.L1Cache_Controller.M.Load::total     24533052                       (Unspecified)
system.caches.L1Cache_Controller.M.Store |      328546     13.70%     13.70% |      287970     12.01%     25.71% |      310256     12.94%     38.65% |      292756     12.21%     50.85% |      307756     12.83%     63.69% |      295267     12.31%     76.00% |      295534     12.32%     88.32% |      279998     11.68%    100.00% (Unspecified)
system.caches.L1Cache_Controller.M.Store::total      2398083                       (Unspecified)
system.caches.L1Cache_Controller.M.Inv   |        9594     12.96%     12.96% |        9211     12.45%     25.41% |        8485     11.46%     36.87% |        9766     13.19%     50.07% |        8701     11.76%     61.82% |        9785     13.22%     75.04% |        9684     13.08%     88.13% |        8787     11.87%    100.00% (Unspecified)
system.caches.L1Cache_Controller.M.Inv::total        74013                       (Unspecified)
system.caches.L1Cache_Controller.M.L1_Replacement |      113118     13.28%     13.28% |      103690     12.17%     25.45% |      107396     12.61%     38.05% |      104204     12.23%     50.28% |      105308     12.36%     62.64% |      107023     12.56%     75.21% |      104241     12.24%     87.44% |      106993     12.56%    100.00% (Unspecified)
system.caches.L1Cache_Controller.M.L1_Replacement::total       851973                       (Unspecified)
system.caches.L1Cache_Controller.M.Fwd_GETX |          49      7.97%      7.97% |          79     12.85%     20.81% |          99     16.10%     36.91% |          31      5.04%     41.95% |          78     12.68%     54.63% |          42      6.83%     61.46% |         134     21.79%     83.25% |         103     16.75%    100.00% (Unspecified)
system.caches.L1Cache_Controller.M.Fwd_GETX::total          615                       (Unspecified)
system.caches.L1Cache_Controller.M.Fwd_GETS |        5502     15.27%     15.27% |        4303     11.95%     27.22% |        4384     12.17%     39.39% |        4295     11.92%     51.31% |        4488     12.46%     63.77% |        4387     12.18%     75.95% |        4316     11.98%     87.93% |        4346     12.07%    100.00% (Unspecified)
system.caches.L1Cache_Controller.M.Fwd_GETS::total        36021                       (Unspecified)
system.caches.L1Cache_Controller.IS.Inv  |           1      0.33%      0.33% |          78     26.09%     26.42% |          81     27.09%     53.51% |          20      6.69%     60.20% |           5      1.67%     61.87% |           3      1.00%     62.88% |         109     36.45%     99.33% |           2      0.67%    100.00% (Unspecified)
system.caches.L1Cache_Controller.IS.Inv::total          299                       (Unspecified)
system.caches.L1Cache_Controller.IS.L1_Replacement |           3     15.00%     15.00% |           1      5.00%     20.00% |           1      5.00%     25.00% |           5     25.00%     50.00% |           2     10.00%     60.00% |           3     15.00%     75.00% |           4     20.00%     95.00% |           1      5.00%    100.00% (Unspecified)
system.caches.L1Cache_Controller.IS.L1_Replacement::total           20                       (Unspecified)
system.caches.L1Cache_Controller.IS.Data_Exclusive |     1200978     12.67%     12.67% |     1176904     12.42%     25.08% |     1195461     12.61%     37.69% |     1172803     12.37%     50.07% |     1173154     12.38%     62.44% |     1195124     12.61%     75.05% |     1171542     12.36%     87.41% |     1193718     12.59%    100.00% (Unspecified)
system.caches.L1Cache_Controller.IS.Data_Exclusive::total      9479684                       (Unspecified)
system.caches.L1Cache_Controller.IS.DataS_fromL1 |      132709     12.60%     12.60% |      134330     12.76%     25.36% |      133379     12.67%     38.03% |      129167     12.27%     50.29% |      130581     12.40%     62.69% |      131018     12.44%     75.14% |      132602     12.59%     87.73% |      129201     12.27%    100.00% (Unspecified)
system.caches.L1Cache_Controller.IS.DataS_fromL1::total      1052987                       (Unspecified)
system.caches.L1Cache_Controller.IS.Data_all_Acks |      471926     12.55%     12.55% |      459822     12.23%     24.78% |      476832     12.68%     37.46% |      470233     12.51%     49.96% |      470832     12.52%     62.48% |      470469     12.51%     75.00% |      469671     12.49%     87.49% |      470560     12.51%    100.00% (Unspecified)
system.caches.L1Cache_Controller.IS.Data_all_Acks::total      3760345                       (Unspecified)
system.caches.L1Cache_Controller.IM.L1_Replacement |           0      0.00%      0.00% |           0      0.00%      0.00% |           5     41.67%     41.67% |           1      8.33%     50.00% |           2     16.67%     66.67% |           2     16.67%     83.33% |           1      8.33%     91.67% |           1      8.33%    100.00% (Unspecified)
system.caches.L1Cache_Controller.IM.L1_Replacement::total           12                       (Unspecified)
system.caches.L1Cache_Controller.IM.Data |          68     70.83%     70.83% |           2      2.08%     72.92% |           4      4.17%     77.08% |           6      6.25%     83.33% |           4      4.17%     87.50% |           4      4.17%     91.67% |           2      2.08%     93.75% |           6      6.25%    100.00% (Unspecified)
system.caches.L1Cache_Controller.IM.Data::total           96                       (Unspecified)
system.caches.L1Cache_Controller.IM.Data_all_Acks |       45686     13.20%     13.20% |       41629     12.03%     25.23% |       43792     12.65%     37.88% |       43020     12.43%     50.31% |       42992     12.42%     62.74% |       43598     12.60%     75.33% |       43056     12.44%     87.78% |       42308     12.22%    100.00% (Unspecified)
system.caches.L1Cache_Controller.IM.Data_all_Acks::total       346081                       (Unspecified)
system.caches.L1Cache_Controller.SM.Inv  |           0      0.00%      0.00% |           1     11.11%     11.11% |           1     11.11%     22.22% |           1     11.11%     33.33% |           1     11.11%     44.44% |           1     11.11%     55.56% |           3     33.33%     88.89% |           1     11.11%    100.00% (Unspecified)
system.caches.L1Cache_Controller.SM.Inv::total            9                       (Unspecified)
system.caches.L1Cache_Controller.SM.Ack  |       13988     14.16%     14.16% |       11711     11.85%     26.01% |       12352     12.50%     38.51% |       11742     11.88%     50.39% |       12184     12.33%     62.72% |       12271     12.42%     75.14% |       12066     12.21%     87.35% |       12495     12.65%    100.00% (Unspecified)
system.caches.L1Cache_Controller.SM.Ack::total        98809                       (Unspecified)
system.caches.L1Cache_Controller.SM.Ack_all |        6302     13.73%     13.73% |        5684     12.38%     26.11% |        5769     12.56%     38.67% |        5432     11.83%     50.50% |        5539     12.06%     62.56% |        5738     12.50%     75.06% |        5645     12.29%     87.36% |        5805     12.64%    100.00% (Unspecified)
system.caches.L1Cache_Controller.SM.Ack_all::total        45914                       (Unspecified)
system.caches.L1Cache_Controller.IS_I.Data_Exclusive |           1     33.33%     33.33% |           0      0.00%     33.33% |           0      0.00%     33.33% |           0      0.00%     33.33% |           0      0.00%     33.33% |           0      0.00%     33.33% |           1     33.33%     66.67% |           1     33.33%    100.00% (Unspecified)
system.caches.L1Cache_Controller.IS_I.Data_Exclusive::total            3                       (Unspecified)
system.caches.L1Cache_Controller.IS_I.Data_all_Acks |           0      0.00%      0.00% |          78     26.35%     26.35% |          81     27.36%     53.72% |          20      6.76%     60.47% |           5      1.69%     62.16% |           3      1.01%     63.18% |         108     36.49%     99.66% |           1      0.34%    100.00% (Unspecified)
system.caches.L1Cache_Controller.IS_I.Data_all_Acks::total          296                       (Unspecified)
system.caches.L1Cache_Controller.M_I.Load |           2     28.57%     28.57% |           0      0.00%     28.57% |           1     14.29%     42.86% |           1     14.29%     57.14% |           2     28.57%     85.71% |           0      0.00%     85.71% |           1     14.29%    100.00% |           0      0.00%    100.00% (Unspecified)
system.caches.L1Cache_Controller.M_I.Load::total            7                       (Unspecified)
system.caches.L1Cache_Controller.M_I.Store |           1      6.25%      6.25% |           3     18.75%     25.00% |           9     56.25%     81.25% |           0      0.00%     81.25% |           2     12.50%     93.75% |           1      6.25%    100.00% |           0      0.00%    100.00% |           0      0.00%    100.00% (Unspecified)
system.caches.L1Cache_Controller.M_I.Store::total           16                       (Unspecified)
system.caches.L1Cache_Controller.M_I.Inv |           0      0.00%      0.00% |           5     23.81%     23.81% |           6     28.57%     52.38% |           2      9.52%     61.90% |           2      9.52%     71.43% |           1      4.76%     76.19% |           4     19.05%     95.24% |           1      4.76%    100.00% (Unspecified)
system.caches.L1Cache_Controller.M_I.Inv::total           21                       (Unspecified)
system.caches.L1Cache_Controller.M_I.Fwd_GETS |           2     20.00%     20.00% |           0      0.00%     20.00% |           0      0.00%     20.00% |           2     20.00%     40.00% |           3     30.00%     70.00% |           3     30.00%    100.00% |           0      0.00%    100.00% |           0      0.00%    100.00% (Unspecified)
system.caches.L1Cache_Controller.M_I.Fwd_GETS::total           10                       (Unspecified)
system.caches.L1Cache_Controller.M_I.WB_Ack |     1080661     12.71%     12.71% |     1052373     12.37%     25.08% |     1074933     12.64%     37.72% |     1049245     12.34%     50.05% |     1051101     12.36%     62.41% |     1074496     12.63%     75.05% |     1050094     12.35%     87.39% |     1072369     12.61%    100.00% (Unspecified)
system.caches.L1Cache_Controller.M_I.WB_Ack::total      8505272                       (Unspecified)
system.caches.L1Cache_Controller.SINK_WB_ACK.WB_Ack |           2      6.45%      6.45% |           5     16.13%     22.58% |           6     19.35%     41.94% |           4     12.90%     54.84% |           5     16.13%     70.97% |           4     12.90%     83.87% |           4     12.90%     96.77% |           1      3.23%    100.00% (Unspecified)
system.caches.L1Cache_Controller.SINK_WB_ACK.WB_Ack::total           31                       (Unspecified)
system.caches.Directory_Controller.Fetch |       43752      0.54%      0.54% |     8077463     99.46%    100.00% (Unspecified)
system.caches.Directory_Controller.Fetch::total      8121215                       (Unspecified)
system.caches.Directory_Controller.Data  |        1925      0.23%      0.23% |      824752     99.77%    100.00% (Unspecified)
system.caches.Directory_Controller.Data::total       826677                       (Unspecified)
system.caches.Directory_Controller.Memory_Data |       43752      0.54%      0.54% |     8077450     99.46%    100.00% (Unspecified)
system.caches.Directory_Controller.Memory_Data::total      8121202                       (Unspecified)
system.caches.Directory_Controller.Memory_Ack |        1925      0.23%      0.23% |      824752     99.77%    100.00% (Unspecified)
system.caches.Directory_Controller.Memory_Ack::total       826677                       (Unspecified)
system.caches.Directory_Controller.CleanReplacement |       41869      0.57%      0.57% |     7252669     99.43%    100.00% (Unspecified)
system.caches.Directory_Controller.CleanReplacement::total      7294538                       (Unspecified)
system.caches.Directory_Controller.I.Fetch |       43752      0.54%      0.54% |     8077463     99.46%    100.00% (Unspecified)
system.caches.Directory_Controller.I.Fetch::total      8121215                       (Unspecified)
system.caches.Directory_Controller.M.Data |        1925      0.23%      0.23% |      824752     99.77%    100.00% (Unspecified)
system.caches.Directory_Controller.M.Data::total       826677                       (Unspecified)
system.caches.Directory_Controller.M.CleanReplacement |       41869      0.57%      0.57% |     7252669     99.43%    100.00% (Unspecified)
system.caches.Directory_Controller.M.CleanReplacement::total      7294538                       (Unspecified)
system.caches.Directory_Controller.IM.Memory_Data |       43752      0.54%      0.54% |     8077450     99.46%    100.00% (Unspecified)
system.caches.Directory_Controller.IM.Memory_Data::total      8121202                       (Unspecified)
system.caches.Directory_Controller.MI.Memory_Ack |        1925      0.23%      0.23% |      824752     99.77%    100.00% (Unspecified)
system.caches.Directory_Controller.MI.Memory_Ack::total       826677                       (Unspecified)
system.caches.L2Cache_Controller.L1_GET_INSTR |       28007     12.49%     12.49% |       30392     13.56%     26.05% |       28369     12.65%     38.71% |       22518     10.04%     48.75% |       26520     11.83%     60.58% |       28559     12.74%     73.32% |       32160     14.35%     87.67% |       27649     12.33%    100.00% (Unspecified)
system.caches.L2Cache_Controller.L1_GET_INSTR::total       224174                       (Unspecified)
system.caches.L2Cache_Controller.L1_GETS |     1784806     12.68%     12.68% |     1784853     12.68%     25.37% |     1756430     12.48%     37.85% |     1736502     12.34%     50.19% |     1758597     12.50%     62.68% |     1738170     12.35%     75.04% |     1768162     12.56%     87.60% |     1745028     12.40%    100.00% (Unspecified)
system.caches.L2Cache_Controller.L1_GETS::total     14072548                       (Unspecified)
system.caches.L2Cache_Controller.L1_GETX |       43941     12.69%     12.69% |       42819     12.37%     25.06% |       40784     11.78%     36.84% |       42200     12.19%     49.02% |       42287     12.21%     61.24% |       47003     13.57%     74.81% |       43709     12.62%     87.43% |       43511     12.57%    100.00% (Unspecified)
system.caches.L2Cache_Controller.L1_GETX::total       346254                       (Unspecified)
system.caches.L2Cache_Controller.L1_UPGRADE |        5594     12.16%     12.16% |        5784     12.58%     24.74% |        5581     12.13%     36.87% |        5693     12.38%     49.25% |        5550     12.07%     61.32% |        5763     12.53%     73.85% |        6231     13.55%     87.40% |        5796     12.60%    100.00% (Unspecified)
system.caches.L2Cache_Controller.L1_UPGRADE::total        45992                       (Unspecified)
system.caches.L2Cache_Controller.L1_PUTX |     1069331     12.57%     12.57% |     1068239     12.56%     25.13% |     1060385     12.47%     37.60% |     1059391     12.46%     50.06% |     1056616     12.42%     62.48% |     1062580     12.49%     74.97% |     1072029     12.60%     87.58% |     1056721     12.42%    100.00% (Unspecified)
system.caches.L2Cache_Controller.L1_PUTX::total      8505292                       (Unspecified)
system.caches.L2Cache_Controller.L1_PUTX_old |           2      4.76%      4.76% |           4      9.52%     14.29% |          10     23.81%     38.10% |           2      4.76%     42.86% |           8     19.05%     61.90% |           6     14.29%     76.19% |           2      4.76%     80.95% |           8     19.05%    100.00% (Unspecified)
system.caches.L2Cache_Controller.L1_PUTX_old::total           42                       (Unspecified)
system.caches.L2Cache_Controller.L2_Replacement |       97570     12.58%     12.58% |       96521     12.45%     25.03% |       95101     12.26%     37.29% |       96514     12.45%     49.74% |       95536     12.32%     62.06% |       99896     12.88%     74.94% |       96687     12.47%     87.41% |       97647     12.59%    100.00% (Unspecified)
system.caches.L2Cache_Controller.L2_Replacement::total       775472                       (Unspecified)
system.caches.L2Cache_Controller.L2_Replacement_clean |      918891     12.51%     12.51% |      922566     12.56%     25.07% |      916430     12.48%     37.54% |      921218     12.54%     50.08% |      914226     12.45%     62.53% |      915278     12.46%     74.99% |      924970     12.59%     87.58% |      912164     12.42%    100.00% (Unspecified)
system.caches.L2Cache_Controller.L2_Replacement_clean::total      7345743                       (Unspecified)
system.caches.L2Cache_Controller.Mem_Data |     1016459     12.52%     12.52% |     1019084     12.55%     25.06% |     1011530     12.46%     37.52% |     1017730     12.53%     50.05% |     1009760     12.43%     62.49% |     1015172     12.50%     74.99% |     1021656     12.58%     87.57% |     1009811     12.43%    100.00% (Unspecified)
system.caches.L2Cache_Controller.Mem_Data::total      8121202                       (Unspecified)
system.caches.L2Cache_Controller.Mem_Ack |     1016461     12.52%     12.52% |     1019087     12.55%     25.06% |     1011531     12.46%     37.52% |     1017732     12.53%     50.05% |     1009762     12.43%     62.49% |     1015174     12.50%     74.99% |     1021657     12.58%     87.57% |     1009811     12.43%    100.00% (Unspecified)
system.caches.L2Cache_Controller.Mem_Ack::total      8121215                       (Unspecified)
system.caches.L2Cache_Controller.WB_Data |       13279     12.07%     12.07% |       13385     12.16%     24.23% |       12998     11.81%     36.04% |       13722     12.47%     48.52% |       13234     12.03%     60.54% |       14641     13.31%     73.85% |       14818     13.47%     87.31% |       13959     12.69%    100.00% (Unspecified)
system.caches.L2Cache_Controller.WB_Data::total       110036                       (Unspecified)
system.caches.L2Cache_Controller.WB_Data_clean |      125898     12.38%     12.38% |      128273     12.61%     24.99% |      127050     12.49%     37.49% |      129955     12.78%     50.26% |      127455     12.53%     62.80% |      125111     12.30%     75.10% |      127915     12.58%     87.68% |      125328     12.32%    100.00% (Unspecified)
system.caches.L2Cache_Controller.WB_Data_clean::total      1016985                       (Unspecified)
system.caches.L2Cache_Controller.Ack     |      298516     12.80%     12.80% |      296400     12.70%     25.50% |      291076     12.48%     37.98% |      291813     12.51%     50.48% |      292510     12.54%     63.02% |      283600     12.16%     75.18% |      291461     12.49%     87.67% |      287621     12.33%    100.00% (Unspecified)
system.caches.L2Cache_Controller.Ack::total      2332997                       (Unspecified)
system.caches.L2Cache_Controller.Ack_all |      159896     12.60%     12.60% |      159616     12.57%     25.17% |      158123     12.46%     37.63% |      161456     12.72%     50.35% |      158453     12.48%     62.83% |      155994     12.29%     75.12% |      159162     12.54%     87.66% |      156634     12.34%    100.00% (Unspecified)
system.caches.L2Cache_Controller.Ack_all::total      1269334                       (Unspecified)
system.caches.L2Cache_Controller.Unblock |      130431     12.39%     12.39% |      132831     12.61%     25.00% |      131340     12.47%     37.47% |      134423     12.77%     50.24% |      131771     12.51%     62.75% |      129587     12.31%     75.06% |      132813     12.61%     87.67% |      129791     12.33%    100.00% (Unspecified)
system.caches.L2Cache_Controller.Unblock::total      1052987                       (Unspecified)
system.caches.L2Cache_Controller.Exclusive_Unblock |     1240476     12.57%     12.57% |     1239292     12.55%     25.12% |     1229833     12.46%     37.58% |     1233394     12.49%     50.07% |     1226719     12.43%     62.50% |     1231958     12.48%     74.98% |     1244298     12.60%     87.58% |     1225712     12.42%    100.00% (Unspecified)
system.caches.L2Cache_Controller.Exclusive_Unblock::total      9871682                       (Unspecified)
system.caches.L2Cache_Controller.NP.L1_GET_INSTR |        5505     12.28%     12.28% |        6082     13.56%     25.84% |        5665     12.63%     38.47% |        5249     11.70%     50.18% |        5639     12.57%     62.75% |        5516     12.30%     75.05% |        5754     12.83%     87.88% |        5435     12.12%    100.00% (Unspecified)
system.caches.L2Cache_Controller.NP.L1_GET_INSTR::total        44845                       (Unspecified)
system.caches.L2Cache_Controller.NP.L1_GETS |      980721     12.51%     12.51% |      983391     12.55%     25.06% |      978316     12.48%     37.55% |      983233     12.55%     50.09% |      974990     12.44%     62.53% |      976369     12.46%     74.99% |      985816     12.58%     87.57% |      974221     12.43%    100.00% (Unspecified)
system.caches.L2Cache_Controller.NP.L1_GETS::total      7837057                       (Unspecified)
system.caches.L2Cache_Controller.NP.L1_GETX |       30235     12.63%     12.63% |       29614     12.37%     25.01% |       27550     11.51%     36.52% |       29250     12.22%     48.74% |       29133     12.17%     60.92% |       33289     13.91%     74.83% |       30087     12.57%     87.40% |       30155     12.60%    100.00% (Unspecified)
system.caches.L2Cache_Controller.NP.L1_GETX::total       239313                       (Unspecified)
system.caches.L2Cache_Controller.NP.L1_PUTX_old |           1      4.76%      4.76% |           2      9.52%     14.29% |           5     23.81%     38.10% |           1      4.76%     42.86% |           4     19.05%     61.90% |           3     14.29%     76.19% |           1      4.76%     80.95% |           4     19.05%    100.00% (Unspecified)
system.caches.L2Cache_Controller.NP.L1_PUTX_old::total           21                       (Unspecified)
system.caches.L2Cache_Controller.SS.L1_GET_INSTR |       19150     12.52%     12.52% |       19480     12.73%     25.25% |       19856     12.98%     38.23% |       15030      9.82%     48.05% |       17310     11.31%     59.37% |       19245     12.58%     71.95% |       23181     15.15%     87.10% |       19735     12.90%    100.00% (Unspecified)
system.caches.L2Cache_Controller.SS.L1_GET_INSTR::total       152987                       (Unspecified)
system.caches.L2Cache_Controller.SS.L1_GETS |      460878     13.08%     13.08% |      459726     13.04%     26.12% |      439745     12.48%     38.60% |      415177     11.78%     50.38% |      446624     12.67%     63.05% |      428474     12.16%     75.20% |      436829     12.39%     87.60% |      437122     12.40%    100.00% (Unspecified)
system.caches.L2Cache_Controller.SS.L1_GETS::total      3524575                       (Unspecified)
system.caches.L2Cache_Controller.SS.L1_GETX |          37     38.54%     38.54% |           1      1.04%     39.58% |          25     26.04%     65.62% |           0      0.00%     65.62% |           1      1.04%     66.67% |           0      0.00%     66.67% |          31     32.29%     98.96% |           1      1.04%    100.00% (Unspecified)
system.caches.L2Cache_Controller.SS.L1_GETX::total           96                       (Unspecified)
system.caches.L2Cache_Controller.SS.L1_UPGRADE |        5594     12.21%     12.21% |        5783     12.62%     24.83% |        5580     12.18%     37.01% |        5693     12.43%     49.43% |        5548     12.11%     61.54% |        5763     12.58%     74.12% |        6061     13.23%     87.35% |        5796     12.65%    100.00% (Unspecified)
system.caches.L2Cache_Controller.SS.L1_UPGRADE::total        45818                       (Unspecified)
system.caches.L2Cache_Controller.SS.L1_PUTX |           3     30.00%     30.00% |           0      0.00%     30.00% |           0      0.00%     30.00% |           0      0.00%     30.00% |           1     10.00%     40.00% |           1     10.00%     50.00% |           2     20.00%     70.00% |           3     30.00%    100.00% (Unspecified)
system.caches.L2Cache_Controller.SS.L1_PUTX::total           10                       (Unspecified)
system.caches.L2Cache_Controller.SS.L2_Replacement |        5290     12.57%     12.57% |        5268     12.52%     25.08% |        5192     12.34%     37.42% |        5336     12.68%     50.10% |        5164     12.27%     62.36% |        5318     12.63%     75.00% |        5289     12.57%     87.57% |        5234     12.43%    100.00% (Unspecified)
system.caches.L2Cache_Controller.SS.L2_Replacement::total        42091                       (Unspecified)
system.caches.L2Cache_Controller.SS.L2_Replacement_clean |      124402     12.41%     12.41% |      126902     12.66%     25.06% |      125480     12.51%     37.57% |      127672     12.73%     50.31% |      125730     12.54%     62.84% |      122877     12.25%     75.10% |      126207     12.59%     87.68% |      123508     12.32%    100.00% (Unspecified)
system.caches.L2Cache_Controller.SS.L2_Replacement_clean::total      1002778                       (Unspecified)
system.caches.L2Cache_Controller.M.L1_GET_INSTR |           0      0.00%      0.00% |           3     21.43%     21.43% |           1      7.14%     28.57% |           1      7.14%     35.71% |           2     14.29%     50.00% |           3     21.43%     71.43% |           1      7.14%     78.57% |           3     21.43%    100.00% (Unspecified)
system.caches.L2Cache_Controller.M.L1_GET_INSTR::total           14                       (Unspecified)
system.caches.L2Cache_Controller.M.L1_GETS |      211057     12.82%     12.82% |      207755     12.62%     25.43% |      205843     12.50%     37.93% |      202711     12.31%     50.24% |      204348     12.41%     62.65% |      203088     12.33%     74.98% |      209129     12.70%     87.68% |      202901     12.32%    100.00% (Unspecified)
system.caches.L2Cache_Controller.M.L1_GETS::total      1646832                       (Unspecified)
system.caches.L2Cache_Controller.M.L1_GETX |       13626     12.84%     12.84% |       12972     12.23%     25.07% |       13087     12.33%     37.40% |       12906     12.16%     49.56% |       13104     12.35%     61.91% |       13653     12.87%     74.78% |       13478     12.70%     87.48% |       13280     12.52%    100.00% (Unspecified)
system.caches.L2Cache_Controller.M.L1_GETX::total       106106                       (Unspecified)
system.caches.L2Cache_Controller.M.L2_Replacement |       89322     12.60%     12.60% |       88241     12.45%     25.04% |       86935     12.26%     37.30% |       88144     12.43%     49.74% |       87358     12.32%     62.06% |       91307     12.88%     74.93% |       88463     12.48%     87.41% |       89270     12.59%    100.00% (Unspecified)
system.caches.L2Cache_Controller.M.L2_Replacement::total       709040                       (Unspecified)
system.caches.L2Cache_Controller.M.L2_Replacement_clean |      758497     12.50%     12.50% |      762403     12.56%     25.06% |      757765     12.49%     37.55% |      758878     12.50%     50.05% |      755033     12.44%     62.49% |      757708     12.49%     74.98% |      764112     12.59%     87.57% |      754411     12.43%    100.00% (Unspecified)
system.caches.L2Cache_Controller.M.L2_Replacement_clean::total      6068807                       (Unspecified)
system.caches.L2Cache_Controller.MT.L1_GETS |      130431     12.39%     12.39% |      132831     12.61%     25.00% |      131340     12.47%     37.47% |      134423     12.77%     50.24% |      131771     12.51%     62.75% |      129587     12.31%     75.06% |      132813     12.61%     87.67% |      129791     12.33%    100.00% (Unspecified)
system.caches.L2Cache_Controller.MT.L1_GETS::total      1052987                       (Unspecified)
system.caches.L2Cache_Controller.MT.L1_GETX |          39      5.88%      5.88% |         232     34.99%     40.87% |         117     17.65%     58.52% |          44      6.64%     65.16% |          49      7.39%     72.55% |          54      8.14%     80.69% |          75     11.31%     92.01% |          53      7.99%    100.00% (Unspecified)
system.caches.L2Cache_Controller.MT.L1_GETX::total          663                       (Unspecified)
system.caches.L2Cache_Controller.MT.L1_PUTX |     1069325     12.57%     12.57% |     1068239     12.56%     25.13% |     1060385     12.47%     37.60% |     1059391     12.46%     50.06% |     1056614     12.42%     62.48% |     1062578     12.49%     74.97% |     1072025     12.60%     87.58% |     1056715     12.42%    100.00% (Unspecified)
system.caches.L2Cache_Controller.MT.L1_PUTX::total      8505272                       (Unspecified)
system.caches.L2Cache_Controller.MT.L2_Replacement |        2958     12.15%     12.15% |        3012     12.37%     24.53% |        2974     12.22%     36.74% |        3034     12.46%     49.21% |        3014     12.38%     61.59% |        3271     13.44%     75.03% |        2935     12.06%     87.09% |        3143     12.91%    100.00% (Unspecified)
system.caches.L2Cache_Controller.MT.L2_Replacement::total        24341                       (Unspecified)
system.caches.L2Cache_Controller.MT.L2_Replacement_clean |       35992     13.13%     13.13% |       33261     12.13%     25.26% |       33185     12.10%     37.36% |       34668     12.65%     50.01% |       33463     12.21%     62.22% |       34693     12.65%     74.87% |       34651     12.64%     87.51% |       34245     12.49%    100.00% (Unspecified)
system.caches.L2Cache_Controller.MT.L2_Replacement_clean::total       274158                       (Unspecified)
system.caches.L2Cache_Controller.M_I.L1_GET_INSTR |           6      5.00%      5.00% |         109     90.83%     95.83% |           3      2.50%     98.33% |           0      0.00%     98.33% |           0      0.00%     98.33% |           0      0.00%     98.33% |           1      0.83%     99.17% |           1      0.83%    100.00% (Unspecified)
system.caches.L2Cache_Controller.M_I.L1_GET_INSTR::total          120                       (Unspecified)
system.caches.L2Cache_Controller.M_I.L1_GETS |          27      6.70%      6.70% |           8      1.99%      8.68% |           5      1.24%      9.93% |           6      1.49%     11.41% |          33      8.19%     19.60% |           8      1.99%     21.59% |         311     77.17%     98.76% |           5      1.24%    100.00% (Unspecified)
system.caches.L2Cache_Controller.M_I.L1_GETS::total          403                       (Unspecified)
system.caches.L2Cache_Controller.M_I.L1_GETX |           4     23.53%     23.53% |           0      0.00%     23.53% |           5     29.41%     52.94% |           0      0.00%     52.94% |           0      0.00%     52.94% |           6     35.29%     88.24% |           1      5.88%     94.12% |           1      5.88%    100.00% (Unspecified)
system.caches.L2Cache_Controller.M_I.L1_GETX::total           17                       (Unspecified)
system.caches.L2Cache_Controller.M_I.Mem_Ack |     1016461     12.52%     12.52% |     1019087     12.55%     25.06% |     1011531     12.46%     37.52% |     1017732     12.53%     50.05% |     1009762     12.43%     62.49% |     1015174     12.50%     74.99% |     1021657     12.58%     87.57% |     1009811     12.43%    100.00% (Unspecified)
system.caches.L2Cache_Controller.M_I.Mem_Ack::total      8121215                       (Unspecified)
system.caches.L2Cache_Controller.MT_I.L1_PUTX_old |           0      0.00%      0.00% |           1     50.00%     50.00% |           0      0.00%     50.00% |           0      0.00%     50.00% |           0      0.00%     50.00% |           1     50.00%    100.00% |           0      0.00%    100.00% |           0      0.00%    100.00% (Unspecified)
system.caches.L2Cache_Controller.MT_I.L1_PUTX_old::total            2                       (Unspecified)
system.caches.L2Cache_Controller.MT_I.WB_Data |        2758     12.09%     12.09% |        2850     12.49%     24.59% |        2795     12.25%     36.84% |        2821     12.37%     49.21% |        2808     12.31%     61.52% |        3073     13.47%     74.99% |        2765     12.12%     87.11% |        2940     12.89%    100.00% (Unspecified)
system.caches.L2Cache_Controller.MT_I.WB_Data::total        22810                       (Unspecified)
system.caches.L2Cache_Controller.MT_I.Ack_all |         200     13.06%     13.06% |         162     10.58%     23.64% |         179     11.69%     35.34% |         213     13.91%     49.25% |         206     13.46%     62.70% |         198     12.93%     75.64% |         170     11.10%     86.74% |         203     13.26%    100.00% (Unspecified)
system.caches.L2Cache_Controller.MT_I.Ack_all::total         1531                       (Unspecified)
system.caches.L2Cache_Controller.MCT_I.L1_PUTX_old |           1      5.26%      5.26% |           1      5.26%     10.53% |           5     26.32%     36.84% |           1      5.26%     42.11% |           4     21.05%     63.16% |           2     10.53%     73.68% |           1      5.26%     78.95% |           4     21.05%    100.00% (Unspecified)
system.caches.L2Cache_Controller.MCT_I.L1_PUTX_old::total           19                       (Unspecified)
system.caches.L2Cache_Controller.MCT_I.WB_Data |        5987     11.69%     11.69% |        5976     11.67%     23.36% |        5908     11.54%     34.90% |        6432     12.56%     47.46% |        6106     11.92%     59.39% |        7090     13.85%     73.23% |        7154     13.97%     87.20% |        6552     12.80%    100.00% (Unspecified)
system.caches.L2Cache_Controller.MCT_I.WB_Data::total        51205                       (Unspecified)
system.caches.L2Cache_Controller.MCT_I.WB_Data_clean |           1      5.26%      5.26% |           1      5.26%     10.53% |           5     26.32%     36.84% |           1      5.26%     42.11% |           4     21.05%     63.16% |           2     10.53%     73.68% |           1      5.26%     78.95% |           4     21.05%    100.00% (Unspecified)
system.caches.L2Cache_Controller.MCT_I.WB_Data_clean::total           19                       (Unspecified)
system.caches.L2Cache_Controller.MCT_I.Ack_all |       30004     13.46%     13.46% |       27284     12.24%     25.70% |       27272     12.23%     37.93% |       28235     12.67%     50.60% |       27353     12.27%     62.87% |       27601     12.38%     75.25% |       27496     12.33%     87.58% |       27689     12.42%    100.00% (Unspecified)
system.caches.L2Cache_Controller.MCT_I.Ack_all::total       222934                       (Unspecified)
system.caches.L2Cache_Controller.I_I.L1_GET_INSTR |           0      0.00%      0.00% |           2    100.00%    100.00% |           0      0.00%    100.00% |           0      0.00%    100.00% |           0      0.00%    100.00% |           0      0.00%    100.00% |           0      0.00%    100.00% |           0      0.00%    100.00% (Unspecified)
system.caches.L2Cache_Controller.I_I.L1_GET_INSTR::total            2                       (Unspecified)
system.caches.L2Cache_Controller.I_I.L1_GETS |           1     25.00%     25.00% |           1     25.00%     50.00% |           0      0.00%     50.00% |           1     25.00%     75.00% |           0      0.00%     75.00% |           0      0.00%     75.00% |           1     25.00%    100.00% |           0      0.00%    100.00% (Unspecified)
system.caches.L2Cache_Controller.I_I.L1_GETS::total            4                       (Unspecified)
system.caches.L2Cache_Controller.I_I.Ack |      286358     12.77%     12.77% |      284735     12.70%     25.47% |      280255     12.50%     37.96% |      280651     12.51%     50.48% |      281539     12.55%     63.03% |      272360     12.14%     75.17% |      280036     12.49%     87.66% |      276711     12.34%    100.00% (Unspecified)
system.caches.L2Cache_Controller.I_I.Ack::total      2242645                       (Unspecified)
system.caches.L2Cache_Controller.I_I.Ack_all |      124402     12.41%     12.41% |      126902     12.66%     25.06% |      125480     12.51%     37.57% |      127672     12.73%     50.31% |      125730     12.54%     62.84% |      122877     12.25%     75.10% |      126207     12.59%     87.68% |      123508     12.32%    100.00% (Unspecified)
system.caches.L2Cache_Controller.I_I.Ack_all::total      1002778                       (Unspecified)
system.caches.L2Cache_Controller.S_I.Ack |       12158     13.46%     13.46% |       11665     12.91%     26.37% |       10821     11.98%     38.34% |       11162     12.35%     50.70% |       10971     12.14%     62.84% |       11240     12.44%     75.28% |       11425     12.64%     87.93% |       10910     12.07%    100.00% (Unspecified)
system.caches.L2Cache_Controller.S_I.Ack::total        90352                       (Unspecified)
system.caches.L2Cache_Controller.S_I.Ack_all |        5290     12.57%     12.57% |        5268     12.52%     25.08% |        5192     12.34%     37.42% |        5336     12.68%     50.10% |        5164     12.27%     62.36% |        5318     12.63%     75.00% |        5289     12.57%     87.57% |        5234     12.43%    100.00% (Unspecified)
system.caches.L2Cache_Controller.S_I.Ack_all::total        42091                       (Unspecified)
system.caches.L2Cache_Controller.ISS.L1_GETS |         831     19.83%     19.83% |         453     10.81%     30.64% |         684     16.32%     46.97% |         441     10.53%     57.49% |         452     10.79%     68.28% |         256      6.11%     74.39% |         378      9.02%     83.41% |         695     16.59%    100.00% (Unspecified)
system.caches.L2Cache_Controller.ISS.L1_GETS::total         4190                       (Unspecified)
system.caches.L2Cache_Controller.ISS.L1_GETX |           0      0.00%      0.00% |           0      0.00%      0.00% |           0      0.00%      0.00% |           0      0.00%      0.00% |           0      0.00%      0.00% |           0      0.00%      0.00% |           2    100.00%    100.00% |           0      0.00%    100.00% (Unspecified)
system.caches.L2Cache_Controller.ISS.L1_GETX::total            2                       (Unspecified)
system.caches.L2Cache_Controller.ISS.Mem_Data |      979888     12.51%     12.51% |      982936     12.55%     25.06% |      977631     12.48%     37.54% |      982790     12.55%     50.09% |      974536     12.44%     62.53% |      976111     12.46%     74.99% |      985437     12.58%     87.57% |      973526     12.43%    100.00% (Unspecified)
system.caches.L2Cache_Controller.ISS.Mem_Data::total      7832855                       (Unspecified)
system.caches.L2Cache_Controller.IS.L1_GET_INSTR |        3346     12.77%     12.77% |        4716     18.00%     30.76% |        2844     10.85%     41.62% |        2238      8.54%     50.16% |        3569     13.62%     63.78% |        3795     14.48%     78.26% |        3223     12.30%     90.56% |        2475      9.44%    100.00% (Unspecified)
system.caches.L2Cache_Controller.IS.L1_GET_INSTR::total        26206                       (Unspecified)
system.caches.L2Cache_Controller.IS.L1_GETS |         640     17.61%     17.61% |         475     13.07%     30.68% |         434     11.94%     42.63% |         491     13.51%     56.14% |         343      9.44%     65.58% |         224      6.16%     71.74% |         771     21.22%     92.96% |         256      7.04%    100.00% (Unspecified)
system.caches.L2Cache_Controller.IS.L1_GETS::total         3634                       (Unspecified)
system.caches.L2Cache_Controller.IS.Mem_Data |        6336     12.92%     12.92% |        6535     13.33%     26.25% |        6349     12.95%     39.20% |        5690     11.60%     50.80% |        6091     12.42%     63.22% |        5772     11.77%     74.99% |        6132     12.51%     87.50% |        6130     12.50%    100.00% (Unspecified)
system.caches.L2Cache_Controller.IS.Mem_Data::total        49035                       (Unspecified)
system.caches.L2Cache_Controller.IM.L1_GETS |           0      0.00%      0.00% |           0      0.00%      0.00% |           0      0.00%      0.00% |           0      0.00%      0.00% |           0      0.00%      0.00% |           0      0.00%      0.00% |           1    100.00%    100.00% |           0      0.00%    100.00% (Unspecified)
system.caches.L2Cache_Controller.IM.L1_GETS::total            1                       (Unspecified)
system.caches.L2Cache_Controller.IM.Mem_Data |       30235     12.63%     12.63% |       29613     12.37%     25.01% |       27550     11.51%     36.52% |       29250     12.22%     48.74% |       29133     12.17%     60.92% |       33289     13.91%     74.83% |       30087     12.57%     87.40% |       30155     12.60%    100.00% (Unspecified)
system.caches.L2Cache_Controller.IM.Mem_Data::total       239312                       (Unspecified)
system.caches.L2Cache_Controller.SS_MB.L1_GETS |           0      0.00%      0.00% |           0      0.00%      0.00% |           0      0.00%      0.00% |           1      0.09%      0.09% |           6      0.57%      0.66% |           0      0.00%      0.66% |        1044     99.05%     99.72% |           3      0.28%    100.00% (Unspecified)
system.caches.L2Cache_Controller.SS_MB.L1_GETS::total         1054                       (Unspecified)
system.caches.L2Cache_Controller.SS_MB.L1_GETX |           0      0.00%      0.00% |           0      0.00%      0.00% |           0      0.00%      0.00% |           0      0.00%      0.00% |           0      0.00%      0.00% |           1     12.50%     12.50% |           1     12.50%     25.00% |           6     75.00%    100.00% (Unspecified)
system.caches.L2Cache_Controller.SS_MB.L1_GETX::total            8                       (Unspecified)
system.caches.L2Cache_Controller.SS_MB.L1_UPGRADE |           0      0.00%      0.00% |           1     11.11%     11.11% |           1     11.11%     22.22% |           0      0.00%     22.22% |           0      0.00%     22.22% |           0      0.00%     22.22% |           7     77.78%    100.00% |           0      0.00%    100.00% (Unspecified)
system.caches.L2Cache_Controller.SS_MB.L1_UPGRADE::total            9                       (Unspecified)
system.caches.L2Cache_Controller.SS_MB.Exclusive_Unblock |        5631     12.26%     12.26% |        5784     12.60%     24.86% |        5605     12.21%     37.07% |        5693     12.40%     49.47% |        5549     12.09%     61.55% |        5763     12.55%     74.11% |        6092     13.27%     87.37% |        5797     12.63%    100.00% (Unspecified)
system.caches.L2Cache_Controller.SS_MB.Exclusive_Unblock::total        45914                       (Unspecified)
system.caches.L2Cache_Controller.MT_MB.L1_GETS |          21     13.82%     13.82% |           7      4.61%     18.42% |          32     21.05%     39.47% |           4      2.63%     42.11% |          13      8.55%     50.66% |          49     32.24%     82.89% |          14      9.21%     92.11% |          12      7.89%    100.00% (Unspecified)
system.caches.L2Cache_Controller.MT_MB.L1_GETS::total          152                       (Unspecified)
system.caches.L2Cache_Controller.MT_MB.L1_GETX |           0      0.00%      0.00% |           0      0.00%      0.00% |           0      0.00%      0.00% |           0      0.00%      0.00% |           0      0.00%      0.00% |           0      0.00%      0.00% |          34     69.39%     69.39% |          15     30.61%    100.00% (Unspecified)
system.caches.L2Cache_Controller.MT_MB.L1_GETX::total           49                       (Unspecified)
system.caches.L2Cache_Controller.MT_MB.Exclusive_Unblock |     1234845     12.57%     12.57% |     1233508     12.55%     25.12% |     1224228     12.46%     37.58% |     1227701     12.49%     50.08% |     1221170     12.43%     62.50% |     1226195     12.48%     74.98% |     1238206     12.60%     87.58% |     1219915     12.42%    100.00% (Unspecified)
system.caches.L2Cache_Controller.MT_MB.Exclusive_Unblock::total      9825768                       (Unspecified)
system.caches.L2Cache_Controller.MT_IIB.L1_GETS |         176     11.20%     11.20% |         173     11.01%     22.20% |          30      1.91%     24.11% |           9      0.57%     24.68% |          14      0.89%     25.57% |         114      7.25%     32.82% |        1040     66.16%     98.98% |          16      1.02%    100.00% (Unspecified)
system.caches.L2Cache_Controller.MT_IIB.L1_GETS::total         1572                       (Unspecified)
system.caches.L2Cache_Controller.MT_IIB.L1_PUTX |           3     30.00%     30.00% |           0      0.00%     30.00% |           0      0.00%     30.00% |           0      0.00%     30.00% |           1     10.00%     40.00% |           1     10.00%     50.00% |           2     20.00%     70.00% |           3     30.00%    100.00% (Unspecified)
system.caches.L2Cache_Controller.MT_IIB.L1_PUTX::total           10                       (Unspecified)
system.caches.L2Cache_Controller.MT_IIB.WB_Data |        4533     12.59%     12.59% |        4559     12.66%     25.24% |        4295     11.92%     37.17% |        4468     12.40%     49.57% |        4320     11.99%     61.57% |        4477     12.43%     74.00% |        4899     13.60%     87.60% |        4467     12.40%    100.00% (Unspecified)
system.caches.L2Cache_Controller.MT_IIB.WB_Data::total        36018                       (Unspecified)
system.caches.L2Cache_Controller.MT_IIB.WB_Data_clean |      125892     12.38%     12.38% |      128266     12.61%     24.99% |      127042     12.49%     37.49% |      129951     12.78%     50.26% |      127446     12.53%     62.80% |      125104     12.30%     75.10% |      127912     12.58%     87.68% |      125317     12.32%    100.00% (Unspecified)
system.caches.L2Cache_Controller.MT_IIB.WB_Data_clean::total      1016930                       (Unspecified)
system.caches.L2Cache_Controller.MT_IIB.Unblock |           6     15.38%     15.38% |           6     15.38%     30.77% |           3      7.69%     38.46% |           4     10.26%     48.72% |           5     12.82%     61.54% |           6     15.38%     76.92% |           2      5.13%     82.05% |           7     17.95%    100.00% (Unspecified)
system.caches.L2Cache_Controller.MT_IIB.Unblock::total           39                       (Unspecified)
system.caches.L2Cache_Controller.MT_IB.WB_Data |           1     33.33%     33.33% |           0      0.00%     33.33% |           0      0.00%     33.33% |           1     33.33%     66.67% |           0      0.00%     66.67% |           1     33.33%    100.00% |           0      0.00%    100.00% |           0      0.00%    100.00% (Unspecified)
system.caches.L2Cache_Controller.MT_IB.WB_Data::total            3                       (Unspecified)
system.caches.L2Cache_Controller.MT_IB.WB_Data_clean |           5     13.89%     13.89% |           6     16.67%     30.56% |           3      8.33%     38.89% |           3      8.33%     47.22% |           5     13.89%     61.11% |           5     13.89%     75.00% |           2      5.56%     80.56% |           7     19.44%    100.00% (Unspecified)
system.caches.L2Cache_Controller.MT_IB.WB_Data_clean::total           36                       (Unspecified)
system.caches.L2Cache_Controller.MT_SB.L1_GETS |          23     26.44%     26.44% |          33     37.93%     64.37% |           1      1.15%     65.52% |           5      5.75%     71.26% |           3      3.45%     74.71% |           1      1.15%     75.86% |          15     17.24%     93.10% |           6      6.90%    100.00% (Unspecified)
system.caches.L2Cache_Controller.MT_SB.L1_GETS::total           87                       (Unspecified)
system.caches.L2Cache_Controller.MT_SB.L1_UPGRADE |           0      0.00%      0.00% |           0      0.00%      0.00% |           0      0.00%      0.00% |           0      0.00%      0.00% |           2      1.21%      1.21% |           0      0.00%      1.21% |         163     98.79%    100.00% |           0      0.00%    100.00% (Unspecified)
system.caches.L2Cache_Controller.MT_SB.L1_UPGRADE::total          165                       (Unspecified)
system.caches.L2Cache_Controller.MT_SB.Unblock |      130425     12.39%     12.39% |      132825     12.61%     25.00% |      131337     12.47%     37.47% |      134419     12.77%     50.24% |      131766     12.51%     62.75% |      129581     12.31%     75.06% |      132811     12.61%     87.67% |      129784     12.33%    100.00% (Unspecified)
system.caches.L2Cache_Controller.MT_SB.Unblock::total      1052948                       (Unspecified)
system.caches.RequestType.LD.latency_hist_seqr::bucket_size          512                       (Unspecified)
system.caches.RequestType.LD.latency_hist_seqr::max_bucket         5119                       (Unspecified)
system.caches.RequestType.LD.latency_hist_seqr::samples     97117502                       (Unspecified)
system.caches.RequestType.LD.latency_hist_seqr::mean    62.775702                       (Unspecified)
system.caches.RequestType.LD.latency_hist_seqr::gmean     2.013943                       (Unspecified)
system.caches.RequestType.LD.latency_hist_seqr::stdev   227.760020                       (Unspecified)
system.caches.RequestType.LD.latency_hist_seqr |    90509070     93.20%     93.20% |     5505292      5.67%     98.86% |      737197      0.76%     99.62% |      268087      0.28%     99.90% |       73140      0.08%     99.97% |       22940      0.02%    100.00% |        1617      0.00%    100.00% |         136      0.00%    100.00% |          22      0.00%    100.00% |           1      0.00%    100.00% (Unspecified)
system.caches.RequestType.LD.latency_hist_seqr::total     97117502                       (Unspecified)
system.caches.RequestType.LD.hit_latency_hist_seqr::bucket_size            1                       (Unspecified)
system.caches.RequestType.LD.hit_latency_hist_seqr::max_bucket            9                       (Unspecified)
system.caches.RequestType.LD.hit_latency_hist_seqr::samples     83048239                       (Unspecified)
system.caches.RequestType.LD.hit_latency_hist_seqr::mean     1.000589                       (Unspecified)
system.caches.RequestType.LD.hit_latency_hist_seqr::gmean     1.000409                       (Unspecified)
system.caches.RequestType.LD.hit_latency_hist_seqr::stdev     0.024269                       (Unspecified)
system.caches.RequestType.LD.hit_latency_hist_seqr |           0      0.00%      0.00% |    82999297     99.94%     99.94% |       48942      0.06%    100.00% |           0      0.00%    100.00% |           0      0.00%    100.00% |           0      0.00%    100.00% |           0      0.00%    100.00% |           0      0.00%    100.00% |           0      0.00%    100.00% |           0      0.00%    100.00% (Unspecified)
system.caches.RequestType.LD.hit_latency_hist_seqr::total     83048239                       (Unspecified)
system.caches.RequestType.LD.miss_latency_hist_seqr::bucket_size          512                       (Unspecified)
system.caches.RequestType.LD.miss_latency_hist_seqr::max_bucket         5119                       (Unspecified)
system.caches.RequestType.LD.miss_latency_hist_seqr::samples     14069263                       (Unspecified)
system.caches.RequestType.LD.miss_latency_hist_seqr::mean   427.422684                       (Unspecified)
system.caches.RequestType.LD.miss_latency_hist_seqr::gmean   125.237234                       (Unspecified)
system.caches.RequestType.LD.miss_latency_hist_seqr::stdev   450.097060                       (Unspecified)
system.caches.RequestType.LD.miss_latency_hist_seqr |     7460831     53.03%     53.03% |     5505292     39.13%     92.16% |      737197      5.24%     97.40% |      268087      1.91%     99.30% |       73140      0.52%     99.82% |       22940      0.16%     99.99% |        1617      0.01%    100.00% |         136      0.00%    100.00% |          22      0.00%    100.00% |           1      0.00%    100.00% (Unspecified)
system.caches.RequestType.LD.miss_latency_hist_seqr::total     14069263                       (Unspecified)
system.caches.RequestType.ST.latency_hist_seqr::bucket_size          512                       (Unspecified)
system.caches.RequestType.ST.latency_hist_seqr::max_bucket         5119                       (Unspecified)
system.caches.RequestType.ST.latency_hist_seqr::samples      2306821                       (Unspecified)
system.caches.RequestType.ST.latency_hist_seqr::mean    76.106060                       (Unspecified)
system.caches.RequestType.ST.latency_hist_seqr::gmean     2.149916                       (Unspecified)
system.caches.RequestType.ST.latency_hist_seqr::stdev   252.662858                       (Unspecified)
system.caches.RequestType.ST.latency_hist_seqr |     2116979     91.77%     91.77% |      155311      6.73%     98.50% |       23122      1.00%     99.51% |        8264      0.36%     99.86% |        2369      0.10%     99.97% |         689      0.03%    100.00% |          83      0.00%    100.00% |           4      0.00%    100.00% |           0      0.00%    100.00% |           0      0.00%    100.00% (Unspecified)
system.caches.RequestType.ST.latency_hist_seqr::total      2306821                       (Unspecified)
system.caches.RequestType.ST.hit_latency_hist_seqr::bucket_size          256                       (Unspecified)
system.caches.RequestType.ST.hit_latency_hist_seqr::max_bucket         2559                       (Unspecified)
system.caches.RequestType.ST.hit_latency_hist_seqr::samples      1974350                       (Unspecified)
system.caches.RequestType.ST.hit_latency_hist_seqr::mean     1.015917                       (Unspecified)
system.caches.RequestType.ST.hit_latency_hist_seqr::gmean     1.003848                       (Unspecified)
system.caches.RequestType.ST.hit_latency_hist_seqr::stdev     2.580308                       (Unspecified)
[...]
system.o3Cpu7.iew.predictedNotTakenIncorrect         9445                       # Number of branches that were predicted not taken incorrectly (Count)
system.o3Cpu7.iew.branchMispredicts             71035                       # Number of branch mispredicts detected at execute (Count)
system.o3Cpu7.iew.instsToCommit              46402519                       # Cumulative count of insts sent to commit (Count)
system.o3Cpu7.iew.writebackCount             46283324                       # Cumulative count of insts written-back (Count)
system.o3Cpu7.iew.producerInst               36034239                       # Number of instructions producing a value (Count)
system.o3Cpu7.iew.consumerInst               51357787                       # Number of instructions consuming a value (Count)
system.o3Cpu7.iew.wbRate                     0.103163                       # Insts written-back per cycle ((Count/Cycle))
system.o3Cpu7.iew.wbFanout                   0.701631                       # Average fanout of values written-back ((Count/Count))
system.o3Cpu7.interrupts.clk_domain.clock         3200                       # Clock period in ticks (Tick)
system.o3Cpu7.lsq0.forwLoads                    23079                       # Number of loads that had data forwarded from stores (Count)
system.o3Cpu7.lsq0.squashedLoads               981456                       # Number of loads squashed (Count)
system.o3Cpu7.lsq0.ignoredResponses                 9                       # Number of memory responses ignored because the instruction is squashed (Count)
system.o3Cpu7.lsq0.memOrderViolation              302                       # Number of memory ordering violations (Count)
system.o3Cpu7.lsq0.squashedStores              320986                       # Number of stores squashed (Count)
system.o3Cpu7.lsq0.rescheduledLoads               116                       # Number of loads that were rescheduled (Count)
system.o3Cpu7.lsq0.blockedByCache                  36                       # Number of times an access to memory failed due to the cache being blocked (Count)
system.o3Cpu7.lsq0.loadToUse::samples        12034955                       # Distribution of cycle latency between the first time a load is issued and its completion (Unspecified)
system.o3Cpu7.lsq0.loadToUse::mean         105.827104                       # Distribution of cycle latency between the first time a load is issued and its completion (Unspecified)
system.o3Cpu7.lsq0.loadToUse::stdev        284.102152                       # Distribution of cycle latency between the first time a load is issued and its completion (Unspecified)
system.o3Cpu7.lsq0.loadToUse::0-9             9503166     78.96%     78.96% # Distribution of cycle latency between the first time a load is issued and its completion (Unspecified)
system.o3Cpu7.lsq0.loadToUse::10-19            541203      4.50%     83.46% # Distribution of cycle latency between the first time a load is issued and its completion (Unspecified)
system.o3Cpu7.lsq0.loadToUse::20-29            202114      1.68%     85.14% # Distribution of cycle latency between the first time a load is issued and its completion (Unspecified)
system.o3Cpu7.lsq0.loadToUse::30-39             33476      0.28%     85.42% # Distribution of cycle latency between the first time a load is issued and its completion (Unspecified)
system.o3Cpu7.lsq0.loadToUse::40-49             23020      0.19%     85.61% # Distribution of cycle latency between the first time a load is issued and its completion (Unspecified)
system.o3Cpu7.lsq0.loadToUse::50-59              5790      0.05%     85.66% # Distribution of cycle latency between the first time a load is issued and its completion (Unspecified)
system.o3Cpu7.lsq0.loadToUse::60-69              2020      0.02%     85.67% # Distribution of cycle latency between the first time a load is issued and its completion (Unspecified)
system.o3Cpu7.lsq0.loadToUse::70-79              7893      0.07%     85.74% # Distribution of cycle latency between the first time a load is issued and its completion (Unspecified)
system.o3Cpu7.lsq0.loadToUse::80-89              4205      0.03%     85.77% # Distribution of cycle latency between the first time a load is issued and its completion (Unspecified)
system.o3Cpu7.lsq0.loadToUse::90-99              5262      0.04%     85.82% # Distribution of cycle latency between the first time a load is issued and its completion (Unspecified)
system.o3Cpu7.lsq0.loadToUse::100-109            2965      0.02%     85.84% # Distribution of cycle latency between the first time a load is issued and its completion (Unspecified)
system.o3Cpu7.lsq0.loadToUse::110-119            1963      0.02%     85.86% # Distribution of cycle latency between the first time a load is issued and its completion (Unspecified)
system.o3Cpu7.lsq0.loadToUse::120-129            3935      0.03%     85.89% # Distribution of cycle latency between the first time a load is issued and its completion (Unspecified)
system.o3Cpu7.lsq0.loadToUse::130-139            2881      0.02%     85.92% # Distribution of cycle latency between the first time a load is issued and its completion (Unspecified)
system.o3Cpu7.lsq0.loadToUse::140-149            3934      0.03%     85.95% # Distribution of cycle latency between the first time a load is issued and its completion (Unspecified)
system.o3Cpu7.lsq0.loadToUse::150-159            3091      0.03%     85.97% # Distribution of cycle latency between the first time a load is issued and its completion (Unspecified)
system.o3Cpu7.lsq0.loadToUse::160-169            2332      0.02%     85.99% # Distribution of cycle latency between the first time a load is issued and its completion (Unspecified)
system.o3Cpu7.lsq0.loadToUse::170-179            4238      0.04%     86.03% # Distribution of cycle latency between the first time a load is issued and its completion (Unspecified)
system.o3Cpu7.lsq0.loadToUse::180-189            3379      0.03%     86.06% # Distribution of cycle latency between the first time a load is issued and its completion (Unspecified)
system.o3Cpu7.lsq0.loadToUse::190-199            4725      0.04%     86.10% # Distribution of cycle latency between the first time a load is issued and its completion (Unspecified)
system.o3Cpu7.lsq0.loadToUse::200-209            4088      0.03%     86.13% # Distribution of cycle latency between the first time a load is issued and its completion (Unspecified)
system.o3Cpu7.lsq0.loadToUse::210-219            3302      0.03%     86.16% # Distribution of cycle latency between the first time a load is issued and its completion (Unspecified)
system.o3Cpu7.lsq0.loadToUse::220-229            5090      0.04%     86.20% # Distribution of cycle latency between the first time a load is issued and its completion (Unspecified)
system.o3Cpu7.lsq0.loadToUse::230-239            3868      0.03%     86.23% # Distribution of cycle latency between the first time a load is issued and its completion (Unspecified)
system.o3Cpu7.lsq0.loadToUse::240-249            5497      0.05%     86.28% # Distribution of cycle latency between the first time a load is issued and its completion (Unspecified)
system.o3Cpu7.lsq0.loadToUse::250-259            4981      0.04%     86.32% # Distribution of cycle latency between the first time a load is issued and its completion (Unspecified)
system.o3Cpu7.lsq0.loadToUse::260-269            3638      0.03%     86.35% # Distribution of cycle latency between the first time a load is issued and its completion (Unspecified)
system.o3Cpu7.lsq0.loadToUse::270-279            5958      0.05%     86.40% # Distribution of cycle latency between the first time a load is issued and its completion (Unspecified)
system.o3Cpu7.lsq0.loadToUse::280-289            4996      0.04%     86.44% # Distribution of cycle latency between the first time a load is issued and its completion (Unspecified)
system.o3Cpu7.lsq0.loadToUse::290-299            6288      0.05%     86.49% # Distribution of cycle latency between the first time a load is issued and its completion (Unspecified)
system.o3Cpu7.lsq0.loadToUse::overflows       1625657     13.51%    100.00% # Distribution of cycle latency between the first time a load is issued and its completion (Unspecified)
system.o3Cpu7.lsq0.loadToUse::min_value             2                       # Distribution of cycle latency between the first time a load is issued and its completion (Unspecified)
system.o3Cpu7.lsq0.loadToUse::max_value          5900                       # Distribution of cycle latency between the first time a load is issued and its completion (Unspecified)
system.o3Cpu7.lsq0.loadToUse::total          12034955                       # Distribution of cycle latency between the first time a load is issued and its completion (Unspecified)
system.o3Cpu7.mmu.dtb.rdAccesses             13183628                       # TLB accesses on read requests (Count)
system.o3Cpu7.mmu.dtb.wrAccesses               712715                       # TLB accesses on write requests (Count)
system.o3Cpu7.mmu.dtb.rdMisses                 192601                       # TLB misses on read requests (Count)
system.o3Cpu7.mmu.dtb.wrMisses                  53142                       # TLB misses on write requests (Count)
system.o3Cpu7.mmu.dtb.walker.power_state.pwrStateResidencyTicks::UNDEFINED  91542506400                       # Cumulative time (in ticks) in various power states (Tick)
system.o3Cpu7.mmu.itb.rdAccesses                    0                       # TLB accesses on read requests (Count)
system.o3Cpu7.mmu.itb.wrAccesses              4149781                       # TLB accesses on write requests (Count)
system.o3Cpu7.mmu.itb.rdMisses                      0                       # TLB misses on read requests (Count)
system.o3Cpu7.mmu.itb.wrMisses                    823                       # TLB misses on write requests (Count)
system.o3Cpu7.mmu.itb.walker.power_state.pwrStateResidencyTicks::UNDEFINED  91542506400                       # Cumulative time (in ticks) in various power states (Tick)
system.o3Cpu7.power_state.numTransitions            6                       # Number of power state transitions (Count)
system.o3Cpu7.power_state.ticksClkGated::samples            3                       # Distribution of time spent in the clock gated state (Tick)
system.o3Cpu7.power_state.ticksClkGated::mean    267717000                       # Distribution of time spent in the clock gated state (Tick)
system.o3Cpu7.power_state.ticksClkGated::stdev 462256320.565636                       # Distribution of time spent in the clock gated state (Tick)
system.o3Cpu7.power_state.ticksClkGated::1000-5e+10            3    100.00%    100.00% # Distribution of time spent in the clock gated state (Tick)
system.o3Cpu7.power_state.ticksClkGated::min_value       699800                       # Distribution of time spent in the clock gated state (Tick)
system.o3Cpu7.power_state.ticksClkGated::max_value    801484600                       # Distribution of time spent in the clock gated state (Tick)
system.o3Cpu7.power_state.ticksClkGated::total            3                       # Distribution of time spent in the clock gated state (Tick)
system.o3Cpu7.power_state.pwrStateResidencyTicks::ON  71991723200                       # Cumulative time (in ticks) in various power states (Tick)
system.o3Cpu7.power_state.pwrStateResidencyTicks::CLK_GATED    803151000                       # Cumulative time (in ticks) in various power states (Tick)
system.o3Cpu7.power_state.pwrStateResidencyTicks::OFF  18747632200                       # Cumulative time (in ticks) in various power states (Tick)
system.o3Cpu7.rename.squashCycles               91069                       # Number of cycles rename is squashing (Cycle)
system.o3Cpu7.rename.idleCycles               3935704                       # Number of cycles rename is idle (Cycle)
system.o3Cpu7.rename.blockCycles            138397024                       # Number of cycles rename is blocking (Cycle)
system.o3Cpu7.rename.serializeStallCycles      1235060                       # count of cycles rename stalled for serializing inst (Cycle)
system.o3Cpu7.rename.runCycles               10880792                       # Number of cycles rename is running (Cycle)
system.o3Cpu7.rename.unblockCycles          293040719                       # Number of cycles rename is unblocking (Cycle)
system.o3Cpu7.rename.renamedInsts            46884277                       # Number of instructions processed by rename (Count)
system.o3Cpu7.rename.ROBFullEvents             109459                       # Number of times rename has blocked due to ROB full (Count)
system.o3Cpu7.rename.IQFullEvents             9807446                       # Number of times rename has blocked due to IQ full (Count)
system.o3Cpu7.rename.LQFullEvents           288255055                       # Number of times rename has blocked due to LQ full (Count)
system.o3Cpu7.rename.SQFullEvents             3501862                       # Number of times rename has blocked due to SQ full (Count)
system.o3Cpu7.rename.fullRegistersEvents            2                       # Number of times there has been no free registers (Count)
system.o3Cpu7.rename.renamedOperands         86661488                       # Number of destination operands rename has renamed (Count)
system.o3Cpu7.rename.lookups                167376609                       # Number of register rename lookups that rename has made (Count)
system.o3Cpu7.rename.intLookups              60641646                       # Number of integer rename lookups (Count)
system.o3Cpu7.rename.fpLookups                 247098                       # Number of floating rename lookups (Count)
system.o3Cpu7.rename.committedMaps           80712604                       # Number of HB maps that are committed (Count)
system.o3Cpu7.rename.undoneMaps               5948816                       # Number of HB maps that are undone due to squashing (Count)
system.o3Cpu7.rename.serializing                 6198                       # count of serializing insts renamed (Count)
system.o3Cpu7.rename.tempSerializing             6248                       # count of temporary serializing insts renamed (Count)
system.o3Cpu7.rename.skidInsts                8652387                       # count of insts added to the skid buffer (Count)
system.o3Cpu7.rob.reads                     484428134                       # The number of ROB reads (Count)
system.o3Cpu7.rob.writes                     94026241                       # The number of ROB writes (Count)
system.o3Cpu7.thread_0.numInsts              25322727                       # Number of Instructions committed (Count)
system.o3Cpu7.thread_0.numOps                43311019                       # Number of Ops committed (Count)
system.o3Cpu7.thread_0.numMemRefs                   0                       # Number of Memory References (Count)
system.pc.bad_addr.power_state.pwrStateResidencyTicks::UNDEFINED  91542506400                       # Cumulative time (in ticks) in various power states (Tick)
system.pc.com_1.power_state.pwrStateResidencyTicks::UNDEFINED  91542506400                       # Cumulative time (in ticks) in various power states (Tick)
system.pc.default_bus.power_state.pwrStateResidencyTicks::UNDEFINED  91542506400                       # Cumulative time (in ticks) in various power states (Tick)
system.pc.empty_isa.power_state.pwrStateResidencyTicks::UNDEFINED  91542506400                       # Cumulative time (in ticks) in various power states (Tick)
system.pc.fake_com_2.power_state.pwrStateResidencyTicks::UNDEFINED  91542506400                       # Cumulative time (in ticks) in various power states (Tick)
system.pc.fake_com_3.power_state.pwrStateResidencyTicks::UNDEFINED  91542506400                       # Cumulative time (in ticks) in various power states (Tick)
system.pc.fake_com_4.power_state.pwrStateResidencyTicks::UNDEFINED  91542506400                       # Cumulative time (in ticks) in various power states (Tick)
system.pc.fake_floppy.power_state.pwrStateResidencyTicks::UNDEFINED  91542506400                       # Cumulative time (in ticks) in various power states (Tick)
system.pc.pci_host.power_state.pwrStateResidencyTicks::UNDEFINED  91542506400                       # Cumulative time (in ticks) in various power states (Tick)
system.pc.south_bridge.cmos.power_state.pwrStateResidencyTicks::UNDEFINED  91542506400                       # Cumulative time (in ticks) in various power states (Tick)
system.pc.south_bridge.dma1.power_state.pwrStateResidencyTicks::UNDEFINED  91542506400                       # Cumulative time (in ticks) in various power states (Tick)
system.pc.south_bridge.ide.disks0.IdeDisk.dmaReadFullPages            0                       # Number of full page size DMA reads (not PRD). (Count)
system.pc.south_bridge.ide.disks0.IdeDisk.dmaReadBytes            0                       # Number of bytes transfered via DMA reads (not PRD). (Byte)
system.pc.south_bridge.ide.disks0.IdeDisk.dmaReadTxs            0                       # Number of DMA read transactions (not PRD). (Count)
system.pc.south_bridge.ide.disks0.IdeDisk.dmaWriteFullPages            0                       # Number of full page size DMA writes. (Count)
system.pc.south_bridge.ide.disks0.IdeDisk.dmaWriteBytes            0                       # Number of bytes transfered via DMA writes. (Byte)
system.pc.south_bridge.ide.disks0.IdeDisk.dmaWriteTxs            0                       # Number of DMA write transactions. (Count)
system.pc.south_bridge.ide.disks1.IdeDisk.dmaReadFullPages            0                       # Number of full page size DMA reads (not PRD). (Count)
system.pc.south_bridge.ide.disks1.IdeDisk.dmaReadBytes            0                       # Number of bytes transfered via DMA reads (not PRD). (Byte)
system.pc.south_bridge.ide.disks1.IdeDisk.dmaReadTxs            0                       # Number of DMA read transactions (not PRD). (Count)
system.pc.south_bridge.ide.disks1.IdeDisk.dmaWriteFullPages            0                       # Number of full page size DMA writes. (Count)
system.pc.south_bridge.ide.disks1.IdeDisk.dmaWriteBytes            0                       # Number of bytes transfered via DMA writes. (Byte)
system.pc.south_bridge.ide.disks1.IdeDisk.dmaWriteTxs            0                       # Number of DMA write transactions. (Count)
system.pc.south_bridge.ide.power_state.pwrStateResidencyTicks::UNDEFINED  91542506400                       # Cumulative time (in ticks) in various power states (Tick)
system.pc.south_bridge.io_apic.power_state.pwrStateResidencyTicks::UNDEFINED  91542506400                       # Cumulative time (in ticks) in various power states (Tick)
system.pc.south_bridge.keyboard.power_state.pwrStateResidencyTicks::UNDEFINED  91542506400                       # Cumulative time (in ticks) in various power states (Tick)
system.pc.south_bridge.pic1.power_state.pwrStateResidencyTicks::UNDEFINED  91542506400                       # Cumulative time (in ticks) in various power states (Tick)
system.pc.south_bridge.pic2.power_state.pwrStateResidencyTicks::UNDEFINED  91542506400                       # Cumulative time (in ticks) in various power states (Tick)
system.pc.south_bridge.pit.power_state.pwrStateResidencyTicks::UNDEFINED  91542506400                       # Cumulative time (in ticks) in various power states (Tick)
system.pc.south_bridge.speaker.power_state.pwrStateResidencyTicks::UNDEFINED  91542506400                       # Cumulative time (in ticks) in various power states (Tick)
system.workload.inst.arm                            0                       # number of arm instructions executed (Count)
system.workload.inst.quiesce                        0                       # number of quiesce instructions executed (Count)

---------- End Simulation Statistics   ----------
