
---------- Begin Simulation Statistics ----------
simSeconds                                   0.097239                       # Number of seconds simulated (Second)
simTicks                                  97238895640                       # Number of ticks simulated (Tick)
finalTick                                21766533710400                       # Number of ticks from beginning of simulation (restored from checkpoints and never reset) (Tick)
simFreq                                  1000000000000                       # The number of ticks per simulated second ((Tick/Second))
hostSeconds                                   7082.66                       # Real time elapsed on the host (Second)
hostTickRate                                 13729153                       # The number of ticks simulated per host second (ticks/s) ((Tick/Second))
hostMemory                                   19825728                       # Number of bytes of host memory used (Byte)
simInsts                                     63977453                       # Number of instructions simulated (Count)
simOps                                      104765105                       # Number of ops (including micro ops) simulated (Count)
hostInstRate                                     9033                       # Simulator instruction rate (inst/s) ((Count/Second))
hostOpRate                                      14792                       # Simulator op (including micro ops) rate (op/s) ((Count/Second))
system.caches.delayHistogram::bucket_size           16                       # delay histogram for all message (Unspecified)
system.caches.delayHistogram::max_bucket          159                       # delay histogram for all message (Unspecified)
system.caches.delayHistogram::samples        39732733                       # delay histogram for all message (Unspecified)
system.caches.delayHistogram::mean           0.626876                       # delay histogram for all message (Unspecified)
system.caches.delayHistogram::stdev          2.181967                       # delay histogram for all message (Unspecified)
system.caches.delayHistogram             |    39698035     99.91%     99.91% |       34312      0.09%    100.00% |         320      0.00%    100.00% |          44      0.00%    100.00% |          20      0.00%    100.00% |           2      0.00%    100.00% |           0      0.00%    100.00% |           0      0.00%    100.00% |           0      0.00%    100.00% |           0      0.00%    100.00% # delay histogram for all message (Unspecified)
system.caches.delayHistogram::total          39732733                       # delay histogram for all message (Unspecified)
system.caches.m_outstandReqHistSeqr::bucket_size            2                       (Unspecified)
system.caches.m_outstandReqHistSeqr::max_bucket           19                       (Unspecified)
system.caches.m_outstandReqHistSeqr::samples     43964171                       (Unspecified)
system.caches.m_outstandReqHistSeqr::mean     2.879505                       (Unspecified)
system.caches.m_outstandReqHistSeqr::gmean     2.092628                       (Unspecified)
system.caches.m_outstandReqHistSeqr::stdev     2.589087                       (Unspecified)
system.caches.m_outstandReqHistSeqr      |    18662669     42.45%     42.45% |    13395819     30.47%     72.92% |     4963390     11.29%     84.21% |     4003713      9.11%     93.32% |     1131138      2.57%     95.89% |     1394864      3.17%     99.06% |      275489      0.63%     99.69% |       98981      0.23%     99.91% |       38108      0.09%    100.00% |           0      0.00%    100.00% (Unspecified)
system.caches.m_outstandReqHistSeqr::total     43964171                       (Unspecified)
system.caches.m_latencyHistSeqr::bucket_size         1024                       (Unspecified)
system.caches.m_latencyHistSeqr::max_bucket        10239                       (Unspecified)
system.caches.m_latencyHistSeqr::samples     43971573                       (Unspecified)
system.caches.m_latencyHistSeqr::mean      150.795715                       (Unspecified)
system.caches.m_latencyHistSeqr::gmean       2.454473                       (Unspecified)
system.caches.m_latencyHistSeqr::stdev     448.599333                       (Unspecified)
system.caches.m_latencyHistSeqr          |    41122557     93.52%     93.52% |     2341509      5.33%     98.85% |      431122      0.98%     99.83% |       75436      0.17%    100.00% |         942      0.00%    100.00% |           7      0.00%    100.00% |           0      0.00%    100.00% |           0      0.00%    100.00% |           0      0.00%    100.00% |           0      0.00%    100.00% (Unspecified)
system.caches.m_latencyHistSeqr::total       43971573                       (Unspecified)
system.caches.m_hitLatencyHistSeqr::bucket_size          512                       (Unspecified)
system.caches.m_hitLatencyHistSeqr::max_bucket         5119                       (Unspecified)
system.caches.m_hitLatencyHistSeqr::samples     38197491                       (Unspecified)
system.caches.m_hitLatencyHistSeqr::mean     1.010511                       (Unspecified)
system.caches.m_hitLatencyHistSeqr::gmean     1.001567                       (Unspecified)
system.caches.m_hitLatencyHistSeqr::stdev     3.695388                       (Unspecified)
system.caches.m_hitLatencyHistSeqr       |    38197250    100.00%    100.00% |         128      0.00%    100.00% |          59      0.00%    100.00% |          18      0.00%    100.00% |          15      0.00%    100.00% |          11      0.00%    100.00% |           6      0.00%    100.00% |           2      0.00%    100.00% |           2      0.00%    100.00% |           0      0.00%    100.00% (Unspecified)
system.caches.m_hitLatencyHistSeqr::total     38197491                       (Unspecified)
system.caches.m_missLatencyHistSeqr::bucket_size         1024                       (Unspecified)
system.caches.m_missLatencyHistSeqr::max_bucket        10239                       (Unspecified)
system.caches.m_missLatencyHistSeqr::samples      5774082                       (Unspecified)
system.caches.m_missLatencyHistSeqr::mean  1141.675126                       (Unspecified)
system.caches.m_missLatencyHistSeqr::gmean   922.921494                       (Unspecified)
system.caches.m_missLatencyHistSeqr::stdev   634.168076                       (Unspecified)
system.caches.m_missLatencyHistSeqr      |     2925179     50.66%     50.66% |     2341432     40.55%     91.21% |      431096      7.47%     98.68% |       75428      1.31%     99.98% |         940      0.02%    100.00% |           7      0.00%    100.00% |           0      0.00%    100.00% |           0      0.00%    100.00% |           0      0.00%    100.00% |           0      0.00%    100.00% (Unspecified)
system.caches.m_missLatencyHistSeqr::total      5774082                       (Unspecified)
system.caches.delayVCHist.vnet_0::bucket_size           16                       # delay histogram for vnet_0 (Unspecified)
system.caches.delayVCHist.vnet_0::max_bucket          159                       # delay histogram for vnet_0 (Unspecified)
system.caches.delayVCHist.vnet_0::samples     16967596                       # delay histogram for vnet_0 (Unspecified)
system.caches.delayVCHist.vnet_0::mean       1.425371                       # delay histogram for vnet_0 (Unspecified)
system.caches.delayVCHist.vnet_0::stdev      3.125081                       # delay histogram for vnet_0 (Unspecified)
system.caches.delayVCHist.vnet_0         |    16934471     99.80%     99.80% |       32764      0.19%    100.00% |         295      0.00%    100.00% |          44      0.00%    100.00% |          20      0.00%    100.00% |           2      0.00%    100.00% |           0      0.00%    100.00% |           0      0.00%    100.00% |           0      0.00%    100.00% |           0      0.00%    100.00% # delay histogram for vnet_0 (Unspecified)
system.caches.delayVCHist.vnet_0::total      16967596                       # delay histogram for vnet_0 (Unspecified)
system.caches.delayVCHist.vnet_1::bucket_size            4                       # delay histogram for vnet_1 (Unspecified)
system.caches.delayVCHist.vnet_1::max_bucket           39                       # delay histogram for vnet_1 (Unspecified)
system.caches.delayVCHist.vnet_1::samples     22669512                       # delay histogram for vnet_1 (Unspecified)
system.caches.delayVCHist.vnet_1::mean       0.031864                       # delay histogram for vnet_1 (Unspecified)
system.caches.delayVCHist.vnet_1::stdev      0.449332                       # delay histogram for vnet_1 (Unspecified)
system.caches.delayVCHist.vnet_1         |    22560914     99.52%     99.52% |       91196      0.40%     99.92% |       13549      0.06%     99.98% |        2280      0.01%     99.99% |         802      0.00%    100.00% |         543      0.00%    100.00% |          87      0.00%    100.00% |         116      0.00%    100.00% |          22      0.00%    100.00% |           3      0.00%    100.00% # delay histogram for vnet_1 (Unspecified)
system.caches.delayVCHist.vnet_1::total      22669512                       # delay histogram for vnet_1 (Unspecified)
system.caches.delayVCHist.vnet_2::bucket_size            1                       # delay histogram for vnet_2 (Unspecified)
system.caches.delayVCHist.vnet_2::max_bucket            9                       # delay histogram for vnet_2 (Unspecified)
system.caches.delayVCHist.vnet_2::samples        95625                       # delay histogram for vnet_2 (Unspecified)
system.caches.delayVCHist.vnet_2::mean       0.000293                       # delay histogram for vnet_2 (Unspecified)
system.caches.delayVCHist.vnet_2::stdev      0.024198                       # delay histogram for vnet_2 (Unspecified)
system.caches.delayVCHist.vnet_2         |       95611     99.99%     99.99% |           0      0.00%     99.99% |          14      0.01%    100.00% |           0      0.00%    100.00% |           0      0.00%    100.00% |           0      0.00%    100.00% |           0      0.00%    100.00% |           0      0.00%    100.00% |           0      0.00%    100.00% |           0      0.00%    100.00% # delay histogram for vnet_2 (Unspecified)
system.caches.delayVCHist.vnet_2::total         95625                       # delay histogram for vnet_2 (Unspecified)
system.caches.L1Cache_Controller.Load    |     1008792     13.00%     13.00% |      944008     12.16%     25.16% |     1031871     13.29%     38.45% |      967245     12.46%     50.92% |      922150     11.88%     62.80% |      978687     12.61%     75.40% |      937113     12.07%     87.48% |      971921     12.52%    100.00% (Unspecified)
system.caches.L1Cache_Controller.Load::total      7761787                       (Unspecified)
system.caches.L1Cache_Controller.Ifetch  |     1762686     13.85%     13.85% |     1431727     11.25%     25.11% |     1779413     13.99%     39.09% |     1565808     12.31%     51.40% |     1409337     11.08%     62.48% |     1669780     13.12%     75.60% |     1479158     11.63%     87.23% |     1624886     12.77%    100.00% (Unspecified)
system.caches.L1Cache_Controller.Ifetch::total     12722795                       (Unspecified)
system.caches.L1Cache_Controller.Store   |     2983149     12.70%     12.70% |     2896171     12.33%     25.03% |     2979734     12.69%     37.72% |     2923219     12.45%     50.17% |     2905689     12.37%     62.54% |     2932657     12.49%     75.02% |     2915972     12.42%     87.44% |     2950412     12.56%    100.00% (Unspecified)
system.caches.L1Cache_Controller.Store::total     23487003                       (Unspecified)
system.caches.L1Cache_Controller.Inv     |       12582     13.36%     13.36% |       11928     12.67%     26.03% |       11386     12.09%     38.12% |       12306     13.07%     51.19% |       11592     12.31%     63.49% |       11449     12.16%     75.65% |       11076     11.76%     87.41% |       11853     12.59%    100.00% (Unspecified)
system.caches.L1Cache_Controller.Inv::total        94172                       (Unspecified)
system.caches.L1Cache_Controller.L1_Replacement |      720246     12.58%     12.58% |      712649     12.45%     25.04% |      717286     12.53%     37.57% |      713301     12.46%     50.03% |      716711     12.52%     62.55% |      710377     12.41%     74.97% |      715695     12.50%     87.47% |      717008     12.53%    100.00% (Unspecified)
system.caches.L1Cache_Controller.L1_Replacement::total      5723273                       (Unspecified)
system.caches.L1Cache_Controller.Fwd_GETX |           0      0.00%      0.00% |           0      0.00%      0.00% |           2    100.00%    100.00% |           0      0.00%    100.00% |           0      0.00%    100.00% |           0      0.00%    100.00% |           0      0.00%    100.00% |           0      0.00%    100.00% (Unspecified)
system.caches.L1Cache_Controller.Fwd_GETX::total            2                       (Unspecified)
system.caches.L1Cache_Controller.Fwd_GETS |         976     67.26%     67.26% |         233     16.06%     83.32% |          99      6.82%     90.14% |          57      3.93%     94.07% |          37      2.55%     96.62% |          26      1.79%     98.41% |           4      0.28%     98.69% |          19      1.31%    100.00% (Unspecified)
system.caches.L1Cache_Controller.Fwd_GETS::total         1451                       (Unspecified)
system.caches.L1Cache_Controller.Data    |         198    100.00%    100.00% |           0      0.00%    100.00% |           0      0.00%    100.00% |           0      0.00%    100.00% |           0      0.00%    100.00% |           0      0.00%    100.00% |           0      0.00%    100.00% |           0      0.00%    100.00% (Unspecified)
system.caches.L1Cache_Controller.Data::total          198                       (Unspecified)
system.caches.L1Cache_Controller.Data_Exclusive |      332020     12.38%     12.38% |      337800     12.60%     24.98% |      331715     12.37%     37.36% |      334866     12.49%     49.85% |      340447     12.70%     62.55% |      330571     12.33%     74.88% |      338192     12.61%     87.49% |      335313     12.51%    100.00% (Unspecified)
system.caches.L1Cache_Controller.Data_Exclusive::total      2680924                       (Unspecified)
system.caches.L1Cache_Controller.DataS_fromL1 |         119      8.20%      8.20% |         749     51.62%     59.82% |         329     22.67%     82.49% |         112      7.72%     90.21% |          52      3.58%     93.80% |          48      3.31%     97.11% |          19      1.31%     98.41% |          23      1.59%    100.00% (Unspecified)
system.caches.L1Cache_Controller.DataS_fromL1::total         1451                       (Unspecified)
system.caches.L1Cache_Controller.Data_all_Acks |      394660     12.77%     12.77% |      380389     12.31%     25.07% |      391551     12.67%     37.74% |      384571     12.44%     50.18% |      382424     12.37%     62.55% |      386002     12.49%     75.04% |      383753     12.41%     87.45% |      387910     12.55%    100.00% (Unspecified)
system.caches.L1Cache_Controller.Data_all_Acks::total      3091260                       (Unspecified)
system.caches.L1Cache_Controller.Ack     |        2052    100.00%    100.00% |           0      0.00%    100.00% |           0      0.00%    100.00% |           0      0.00%    100.00% |           0      0.00%    100.00% |           0      0.00%    100.00% |           0      0.00%    100.00% |           0      0.00%    100.00% (Unspecified)
system.caches.L1Cache_Controller.Ack::total         2052                       (Unspecified)
system.caches.L1Cache_Controller.Ack_all |         447    100.00%    100.00% |           0      0.00%    100.00% |           0      0.00%    100.00% |           0      0.00%    100.00% |           0      0.00%    100.00% |           0      0.00%    100.00% |           0      0.00%    100.00% |           0      0.00%    100.00% (Unspecified)
system.caches.L1Cache_Controller.Ack_all::total          447                       (Unspecified)
system.caches.L1Cache_Controller.WB_Ack  |      701477     12.58%     12.58% |      693849     12.45%     25.03% |      698849     12.53%     37.56% |      694639     12.46%     50.02% |      698856     12.54%     62.56% |      691662     12.41%     74.96% |      697374     12.51%     87.47% |      698524     12.53%    100.00% (Unspecified)
system.caches.L1Cache_Controller.WB_Ack::total      5575230                       (Unspecified)
system.caches.L1Cache_Controller.NP.Load |      338425     12.37%     12.37% |      344530     12.59%     24.96% |      338629     12.38%     37.34% |      341786     12.49%     49.83% |      347381     12.70%     62.53% |      337655     12.34%     74.87% |      345087     12.61%     87.49% |      342279     12.51%    100.00% (Unspecified)
system.caches.L1Cache_Controller.NP.Load::total      2735772                       (Unspecified)
system.caches.L1Cache_Controller.NP.Ifetch |       10311     19.75%     19.75% |        6018     11.53%     31.27% |        6017     11.52%     42.80% |        6019     11.53%     54.33% |        6031     11.55%     65.88% |        6018     11.53%     77.40% |        6023     11.54%     88.94% |        5776     11.06%    100.00% (Unspecified)
system.caches.L1Cache_Controller.NP.Ifetch::total        52213                       (Unspecified)
system.caches.L1Cache_Controller.NP.Store |      371669     12.66%     12.66% |      362126     12.34%     25.00% |      372665     12.69%     37.69% |      365520     12.45%     50.14% |      363326     12.38%     62.52% |      366729     12.49%     75.01% |      364612     12.42%     87.43% |      368978     12.57%    100.00% (Unspecified)
system.caches.L1Cache_Controller.NP.Store::total      2935625                       (Unspecified)
system.caches.L1Cache_Controller.NP.Inv  |        3172     13.96%     13.96% |        2722     11.98%     25.95% |        2812     12.38%     38.33% |        2802     12.34%     50.66% |        2763     12.16%     62.83% |        2869     12.63%     75.46% |        2789     12.28%     87.74% |        2785     12.26%    100.00% (Unspecified)
system.caches.L1Cache_Controller.NP.Inv::total        22714                       (Unspecified)
system.caches.L1Cache_Controller.I.Load  |           1      0.16%      0.16% |         163     26.12%     26.28% |         125     20.03%     46.31% |          83     13.30%     59.62% |          64     10.26%     69.87% |          54      8.65%     78.53% |          81     12.98%     91.51% |          53      8.49%    100.00% (Unspecified)
system.caches.L1Cache_Controller.I.Load::total          624                       (Unspecified)
system.caches.L1Cache_Controller.I.Ifetch |        6593     13.30%     13.30% |        6102     12.31%     25.61% |        6158     12.42%     38.03% |        6140     12.38%     50.41% |        6118     12.34%     62.75% |        6167     12.44%     75.19% |        6141     12.39%     87.58% |        6160     12.42%    100.00% (Unspecified)
system.caches.L1Cache_Controller.I.Ifetch::total        49579                       (Unspecified)
system.caches.L1Cache_Controller.I.Store |           0      0.00%      0.00% |           0      0.00%      0.00% |           2      6.25%      6.25% |           3      9.38%     15.62% |           4     12.50%     28.12% |           0      0.00%     28.12% |          21     65.62%     93.75% |           2      6.25%    100.00% (Unspecified)
system.caches.L1Cache_Controller.I.Store::total           32                       (Unspecified)
system.caches.L1Cache_Controller.I.L1_Replacement |        2766      5.91%      5.91% |        6657     14.23%     20.14% |        6193     13.24%     33.38% |        6476     13.84%     47.22% |        5688     12.16%     59.38% |        6361     13.60%     72.97% |        6141     13.13%     86.10% |        6503     13.90%    100.00% (Unspecified)
system.caches.L1Cache_Controller.I.L1_Replacement::total        46785                       (Unspecified)
system.caches.L1Cache_Controller.S.Load  |       24717     10.58%     10.58% |       38175     16.35%     26.93% |       34831     14.91%     41.84% |       31845     13.64%     55.48% |       29063     12.44%     67.92% |       26043     11.15%     79.07% |       23555     10.09%     89.16% |       25316     10.84%    100.00% (Unspecified)
system.caches.L1Cache_Controller.S.Load::total       233545                       (Unspecified)
system.caches.L1Cache_Controller.S.Ifetch |     1745782     13.83%     13.83% |     1419607     11.25%     25.08% |     1767238     14.00%     39.08% |     1553649     12.31%     51.39% |     1397188     11.07%     62.46% |     1657595     13.13%     75.60% |     1466994     11.62%     87.22% |     1612950     12.78%    100.00% (Unspecified)
system.caches.L1Cache_Controller.S.Ifetch::total     12621003                       (Unspecified)
system.caches.L1Cache_Controller.S.Store |         249    100.00%    100.00% |           0      0.00%    100.00% |           0      0.00%    100.00% |           0      0.00%    100.00% |           0      0.00%    100.00% |           0      0.00%    100.00% |           0      0.00%    100.00% |           0      0.00%    100.00% (Unspecified)
system.caches.L1Cache_Controller.S.Store::total          249                       (Unspecified)
system.caches.L1Cache_Controller.S.Inv   |        7924     14.00%     14.00% |        7038     12.43%     26.43% |        6993     12.35%     38.78% |        6945     12.27%     51.04% |        6941     12.26%     63.30% |        6935     12.25%     75.55% |        6916     12.22%     87.77% |        6926     12.23%    100.00% (Unspecified)
system.caches.L1Cache_Controller.S.Inv::total        56618                       (Unspecified)
system.caches.L1Cache_Controller.S.L1_Replacement |       16003     15.80%     15.80% |       12143     11.99%     27.80% |       12244     12.09%     39.89% |       12186     12.03%     51.92% |       12167     12.02%     63.94% |       12354     12.20%     76.14% |       12180     12.03%     88.17% |       11981     11.83%    100.00% (Unspecified)
system.caches.L1Cache_Controller.S.L1_Replacement::total       101258                       (Unspecified)
system.caches.L1Cache_Controller.E.Load  |      605179     13.14%     13.14% |      540440     11.73%     24.87% |      637418     13.84%     38.72% |      572790     12.44%     51.15% |      525136     11.40%     62.55% |      594376     12.91%     75.46% |      547352     11.88%     87.34% |      582838     12.66%    100.00% (Unspecified)
system.caches.L1Cache_Controller.E.Load::total      4605529                       (Unspecified)
system.caches.L1Cache_Controller.E.Store |        1496     17.94%     17.94% |         981     11.76%     29.70% |         976     11.70%     41.40% |         981     11.76%     53.17% |         981     11.76%     64.93% |         977     11.71%     76.64% |         974     11.68%     88.32% |         974     11.68%    100.00% (Unspecified)
system.caches.L1Cache_Controller.E.Store::total         8340                       (Unspecified)
system.caches.L1Cache_Controller.E.Inv   |         561      9.73%      9.73% |         963     16.70%     26.42% |         369      6.40%     32.82% |        1247     21.62%     54.44% |         811     14.06%     68.50% |         732     12.69%     81.19% |         439      7.61%     88.80% |         646     11.20%    100.00% (Unspecified)
system.caches.L1Cache_Controller.E.Inv::total         5768                       (Unspecified)
system.caches.L1Cache_Controller.E.L1_Replacement |      327500     12.35%     12.35% |      333747     12.59%     24.94% |      328248     12.38%     37.33% |      331024     12.49%     49.81% |      337178     12.72%     62.53% |      326876     12.33%     74.86% |      334735     12.63%     87.49% |      331680     12.51%    100.00% (Unspecified)
system.caches.L1Cache_Controller.E.L1_Replacement::total      2650988                       (Unspecified)
system.caches.L1Cache_Controller.E.Fwd_GETX |           0      0.00%      0.00% |           0      0.00%      0.00% |           2    100.00%    100.00% |           0      0.00%    100.00% |           0      0.00%    100.00% |           0      0.00%    100.00% |           0      0.00%    100.00% |           0      0.00%    100.00% (Unspecified)
system.caches.L1Cache_Controller.E.Fwd_GETX::total            2                       (Unspecified)
system.caches.L1Cache_Controller.E.Fwd_GETS |         416     46.69%     46.69% |         233     26.15%     72.84% |          99     11.11%     83.95% |          57      6.40%     90.35% |          37      4.15%     94.50% |          26      2.92%     97.42% |           4      0.45%     97.87% |          19      2.13%    100.00% (Unspecified)
system.caches.L1Cache_Controller.E.Fwd_GETS::total          891                       (Unspecified)
system.caches.L1Cache_Controller.M.Load  |       40470     21.72%     21.72% |       20700     11.11%     32.83% |       20868     11.20%     44.03% |       20741     11.13%     55.16% |       20506     11.01%     66.17% |       20559     11.03%     77.20% |       21038     11.29%     88.50% |       21435     11.50%    100.00% (Unspecified)
system.caches.L1Cache_Controller.M.Load::total       186317                       (Unspecified)
system.caches.L1Cache_Controller.M.Store |     2609735     12.70%     12.70% |     2533064     12.33%     25.03% |     2606091     12.69%     37.72% |     2556715     12.45%     50.17% |     2541378     12.37%     62.54% |     2564951     12.49%     75.02% |     2550365     12.41%     87.44% |     2580458     12.56%    100.00% (Unspecified)
system.caches.L1Cache_Controller.M.Store::total     20542757                       (Unspecified)
system.caches.L1Cache_Controller.M.Inv   |         925     10.30%     10.30% |        1199     13.35%     23.64% |        1189     13.23%     36.88% |        1288     14.34%     51.21% |        1061     11.81%     63.02% |         906     10.08%     73.11% |         930     10.35%     83.46% |        1486     16.54%    100.00% (Unspecified)
system.caches.L1Cache_Controller.M.Inv::total         8984                       (Unspecified)
system.caches.L1Cache_Controller.M.L1_Replacement |      373977     12.79%     12.79% |      360102     12.31%     25.10% |      370601     12.67%     37.78% |      363615     12.43%     50.21% |      361678     12.37%     62.58% |      364786     12.47%     75.05% |      362639     12.40%     87.46% |      366844     12.54%    100.00% (Unspecified)
system.caches.L1Cache_Controller.M.L1_Replacement::total      2924242                       (Unspecified)
system.caches.L1Cache_Controller.M.Fwd_GETS |         560    100.00%    100.00% |           0      0.00%    100.00% |           0      0.00%    100.00% |           0      0.00%    100.00% |           0      0.00%    100.00% |           0      0.00%    100.00% |           0      0.00%    100.00% |           0      0.00%    100.00% (Unspecified)
system.caches.L1Cache_Controller.M.Fwd_GETS::total          560                       (Unspecified)
system.caches.L1Cache_Controller.IS.Inv  |           0      0.00%      0.00% |           6      6.90%      6.90% |          23     26.44%     33.33% |          24     27.59%     60.92% |          16     18.39%     79.31% |           6      6.90%     86.21% |           2      2.30%     88.51% |          10     11.49%    100.00% (Unspecified)
system.caches.L1Cache_Controller.IS.Inv::total           87                       (Unspecified)
system.caches.L1Cache_Controller.IS.Data_Exclusive |      332020     12.38%     12.38% |      337800     12.60%     24.98% |      331715     12.37%     37.36% |      334866     12.49%     49.85% |      340447     12.70%     62.55% |      330571     12.33%     74.88% |      338192     12.61%     87.49% |      335313     12.51%    100.00% (Unspecified)
system.caches.L1Cache_Controller.IS.Data_Exclusive::total      2680924                       (Unspecified)
system.caches.L1Cache_Controller.IS.DataS_fromL1 |         119      8.20%      8.20% |         749     51.62%     59.82% |         329     22.67%     82.49% |         112      7.72%     90.21% |          52      3.58%     93.80% |          48      3.31%     97.11% |          19      1.31%     98.41% |          23      1.59%    100.00% (Unspecified)
system.caches.L1Cache_Controller.IS.DataS_fromL1::total         1451                       (Unspecified)
system.caches.L1Cache_Controller.IS.Data_all_Acks |       23190     14.89%     14.89% |       18258     11.72%     26.62% |       18862     12.11%     38.73% |       19025     12.22%     50.95% |       19079     12.25%     63.20% |       19268     12.37%     75.57% |       19119     12.28%     87.85% |       18921     12.15%    100.00% (Unspecified)
system.caches.L1Cache_Controller.IS.Data_all_Acks::total       155722                       (Unspecified)
system.caches.L1Cache_Controller.IM.Data |         198    100.00%    100.00% |           0      0.00%    100.00% |           0      0.00%    100.00% |           0      0.00%    100.00% |           0      0.00%    100.00% |           0      0.00%    100.00% |           0      0.00%    100.00% |           0      0.00%    100.00% (Unspecified)
system.caches.L1Cache_Controller.IM.Data::total          198                       (Unspecified)
system.caches.L1Cache_Controller.IM.Data_all_Acks |      371470     12.65%     12.65% |      362125     12.34%     24.99% |      372666     12.70%     37.69% |      365522     12.45%     50.14% |      363329     12.38%     62.52% |      366728     12.49%     75.01% |      364632     12.42%     87.43% |      368979     12.57%    100.00% (Unspecified)
system.caches.L1Cache_Controller.IM.Data_all_Acks::total      2935451                       (Unspecified)
system.caches.L1Cache_Controller.SM.Ack  |        2052    100.00%    100.00% |           0      0.00%    100.00% |           0      0.00%    100.00% |           0      0.00%    100.00% |           0      0.00%    100.00% |           0      0.00%    100.00% |           0      0.00%    100.00% |           0      0.00%    100.00% (Unspecified)
system.caches.L1Cache_Controller.SM.Ack::total         2052                       (Unspecified)
system.caches.L1Cache_Controller.SM.Ack_all |         447    100.00%    100.00% |           0      0.00%    100.00% |           0      0.00%    100.00% |           0      0.00%    100.00% |           0      0.00%    100.00% |           0      0.00%    100.00% |           0      0.00%    100.00% |           0      0.00%    100.00% (Unspecified)
system.caches.L1Cache_Controller.SM.Ack_all::total          447                       (Unspecified)
system.caches.L1Cache_Controller.IS_I.Data_all_Acks |           0      0.00%      0.00% |           6      6.90%      6.90% |          23     26.44%     33.33% |          24     27.59%     60.92% |          16     18.39%     79.31% |           6      6.90%     86.21% |           2      2.30%     88.51% |          10     11.49%    100.00% (Unspecified)
system.caches.L1Cache_Controller.IS_I.Data_all_Acks::total           87                       (Unspecified)
system.caches.L1Cache_Controller.M_I.Inv |           0      0.00%      0.00% |           0      0.00%      0.00% |           0      0.00%      0.00% |           0      0.00%      0.00% |           0      0.00%      0.00% |           1    100.00%    100.00% |           0      0.00%    100.00% |           0      0.00%    100.00% (Unspecified)
system.caches.L1Cache_Controller.M_I.Inv::total            1                       (Unspecified)
system.caches.L1Cache_Controller.M_I.WB_Ack |      701477     12.58%     12.58% |      693849     12.45%     25.03% |      698849     12.53%     37.56% |      694639     12.46%     50.02% |      698856     12.54%     62.56% |      691661     12.41%     74.96% |      697374     12.51%     87.47% |      698524     12.53%    100.00% (Unspecified)
system.caches.L1Cache_Controller.M_I.WB_Ack::total      5575229                       (Unspecified)
system.caches.L1Cache_Controller.SINK_WB_ACK.WB_Ack |           0      0.00%      0.00% |           0      0.00%      0.00% |           0      0.00%      0.00% |           0      0.00%      0.00% |           0      0.00%      0.00% |           1    100.00%    100.00% |           0      0.00%    100.00% |           0      0.00%    100.00% (Unspecified)
system.caches.L1Cache_Controller.SINK_WB_ACK.WB_Ack::total            1                       (Unspecified)
system.caches.Directory_Controller.Fetch |       10727      0.19%      0.19% |     5601568     99.81%    100.00% (Unspecified)
system.caches.Directory_Controller.Fetch::total      5612295                       (Unspecified)
system.caches.Directory_Controller.Data  |         509      0.02%      0.02% |     2968088     99.98%    100.00% (Unspecified)
system.caches.Directory_Controller.Data::total      2968597                       (Unspecified)
system.caches.Directory_Controller.Memory_Data |       10727      0.19%      0.19% |     5601556     99.81%    100.00% (Unspecified)
system.caches.Directory_Controller.Memory_Data::total      5612283                       (Unspecified)
system.caches.Directory_Controller.Memory_Ack |         509      0.02%      0.02% |     2968087     99.98%    100.00% (Unspecified)
system.caches.Directory_Controller.Memory_Ack::total      2968596                       (Unspecified)
system.caches.Directory_Controller.CleanReplacement |       10154      0.38%      0.38% |     2633544     99.62%    100.00% (Unspecified)
system.caches.Directory_Controller.CleanReplacement::total      2643698                       (Unspecified)
system.caches.Directory_Controller.I.Fetch |       10727      0.19%      0.19% |     5601568     99.81%    100.00% (Unspecified)
system.caches.Directory_Controller.I.Fetch::total      5612295                       (Unspecified)
system.caches.Directory_Controller.M.Data |         509      0.02%      0.02% |     2968088     99.98%    100.00% (Unspecified)
system.caches.Directory_Controller.M.Data::total      2968597                       (Unspecified)
system.caches.Directory_Controller.M.CleanReplacement |       10154      0.38%      0.38% |     2633544     99.62%    100.00% (Unspecified)
system.caches.Directory_Controller.M.CleanReplacement::total      2643698                       (Unspecified)
system.caches.Directory_Controller.IM.Memory_Data |       10727      0.19%      0.19% |     5601556     99.81%    100.00% (Unspecified)
system.caches.Directory_Controller.IM.Memory_Data::total      5612283                       (Unspecified)
system.caches.Directory_Controller.MI.Memory_Ack |         509      0.02%      0.02% |     2968087     99.98%    100.00% (Unspecified)
system.caches.Directory_Controller.MI.Memory_Ack::total      2968596                       (Unspecified)
system.caches.L2Cache_Controller.L1_GET_INSTR |       13243     13.00%     13.00% |       15181     14.91%     27.91% |       11817     11.60%     39.51% |        7113      6.98%     46.50% |       12148     11.93%     58.43% |       14450     14.19%     72.62% |       14013     13.76%     86.38% |       13875     13.62%    100.00% (Unspecified)
system.caches.L2Cache_Controller.L1_GET_INSTR::total       101840                       (Unspecified)
system.caches.L2Cache_Controller.L1_GETS |      347940     12.71%     12.71% |      343804     12.56%     25.27% |      342252     12.50%     37.78% |      340899     12.45%     50.23% |      340479     12.44%     62.67% |      338781     12.38%     75.05% |      339509     12.40%     87.45% |      343492     12.55%    100.00% (Unspecified)
system.caches.L2Cache_Controller.L1_GETS::total      2737156                       (Unspecified)
system.caches.L2Cache_Controller.L1_GETX |      367661     12.52%     12.52% |      366601     12.49%     25.01% |      364657     12.42%     37.43% |      366211     12.47%     49.91% |      366683     12.49%     62.40% |      369299     12.58%     74.98% |      366994     12.50%     87.48% |      367562     12.52%    100.00% (Unspecified)
system.caches.L2Cache_Controller.L1_GETX::total      2935668                       (Unspecified)
system.caches.L2Cache_Controller.L1_UPGRADE |           1      0.31%      0.31% |          81     25.31%     25.62% |           0      0.00%     25.62% |           0      0.00%     25.62% |           0      0.00%     25.62% |           0      0.00%     25.62% |         238     74.38%    100.00% |           0      0.00%    100.00% (Unspecified)
system.caches.L2Cache_Controller.L1_UPGRADE::total          320                       (Unspecified)
system.caches.L2Cache_Controller.L1_PUTX |      697228     12.51%     12.51% |      697196     12.51%     25.01% |      694323     12.45%     37.46% |      695552     12.48%     49.94% |      696534     12.49%     62.43% |      699350     12.54%     74.98% |      697071     12.50%     87.48% |      697975     12.52%    100.00% (Unspecified)
system.caches.L2Cache_Controller.L1_PUTX::total      5575229                       (Unspecified)
system.caches.L2Cache_Controller.L1_PUTX_old |           0      0.00%      0.00% |           0      0.00%      0.00% |           0      0.00%      0.00% |           0      0.00%      0.00% |           2    100.00%    100.00% |           0      0.00%    100.00% |           0      0.00%    100.00% |           0      0.00%    100.00% (Unspecified)
system.caches.L2Cache_Controller.L1_PUTX_old::total            2                       (Unspecified)
system.caches.L2Cache_Controller.L2_Replacement |      370795     12.53%     12.53% |      369434     12.48%     25.01% |      368006     12.43%     37.44% |      369567     12.49%     49.93% |      368954     12.47%     62.40% |      371878     12.56%     74.96% |      369835     12.50%     87.46% |      371235     12.54%    100.00% (Unspecified)
system.caches.L2Cache_Controller.L2_Replacement::total      2959704                       (Unspecified)
system.caches.L2Cache_Controller.L2_Replacement_clean |      332351     12.53%     12.53% |      332993     12.55%     25.08% |      330139     12.45%     37.53% |      330843     12.47%     50.00% |      331855     12.51%     62.51% |      331416     12.49%     75.01% |      331738     12.51%     87.51% |      331256     12.49%    100.00% (Unspecified)
system.caches.L2Cache_Controller.L2_Replacement_clean::total      2652591                       (Unspecified)
system.caches.L2Cache_Controller.Mem_Data |      703144     12.53%     12.53% |      702426     12.52%     25.04% |      698145     12.44%     37.48% |      700408     12.48%     49.96% |      700806     12.49%     62.45% |      703294     12.53%     74.98% |      701570     12.50%     87.48% |      702490     12.52%    100.00% (Unspecified)
system.caches.L2Cache_Controller.Mem_Data::total      5612283                       (Unspecified)
system.caches.L2Cache_Controller.Mem_Ack |      703146     12.53%     12.53% |      702427     12.52%     25.04% |      698145     12.44%     37.48% |      700410     12.48%     49.96% |      700809     12.49%     62.45% |      703294     12.53%     74.98% |      701572     12.50%     87.48% |      702491     12.52%    100.00% (Unspecified)
system.caches.L2Cache_Controller.Mem_Ack::total      5612294                       (Unspecified)
system.caches.L2Cache_Controller.WB_Data |        1594     16.70%     16.70% |        1313     13.76%     30.46% |         405      4.24%     34.70% |        1139     11.93%     46.63% |        1080     11.31%     57.95% |        1387     14.53%     72.48% |        1401     14.68%     87.16% |        1226     12.84%    100.00% (Unspecified)
system.caches.L2Cache_Controller.WB_Data::total         9545                       (Unspecified)
system.caches.L2Cache_Controller.WB_Data_clean |         181     20.31%     20.31% |         133     14.93%     35.24% |         143     16.05%     51.29% |         108     12.12%     63.41% |          73      8.19%     71.60% |          66      7.41%     79.01% |          85      9.54%     88.55% |         102     11.45%    100.00% (Unspecified)
system.caches.L2Cache_Controller.WB_Data_clean::total          891                       (Unspecified)
system.caches.L2Cache_Controller.Ack     |        9857     14.97%     14.97% |        8887     13.50%     28.47% |        7954     12.08%     40.56% |        7014     10.66%     51.21% |        7984     12.13%     63.34% |        7843     11.91%     75.26% |        8408     12.77%     88.03% |        7880     11.97%    100.00% (Unspecified)
system.caches.L2Cache_Controller.Ack::total        65827                       (Unspecified)
system.caches.L2Cache_Controller.Ack_all |        2728     15.94%     15.94% |        2507     14.65%     30.60% |        1687      9.86%     40.46% |        1980     11.57%     52.03% |        2060     12.04%     64.07% |        2014     11.77%     75.84% |        2015     11.78%     87.62% |        2119     12.38%    100.00% (Unspecified)
system.caches.L2Cache_Controller.Ack_all::total        17110                       (Unspecified)
system.caches.L2Cache_Controller.Unblock |         377     25.98%     25.98% |         231     15.92%     41.90% |         143      9.86%     51.76% |         108      7.44%     59.20% |          74      5.10%     64.30% |          66      4.55%     68.85% |         350     24.12%     92.97% |         102      7.03%    100.00% (Unspecified)
system.caches.L2Cache_Controller.Unblock::total         1451                       (Unspecified)
system.caches.L2Cache_Controller.Exclusive_Unblock |      703247     12.52%     12.52% |      702699     12.51%     25.03% |      698330     12.43%     37.46% |      700748     12.48%     49.94% |      701609     12.49%     62.43% |      704691     12.55%     74.98% |      702360     12.50%     87.48% |      703137     12.52%    100.00% (Unspecified)
system.caches.L2Cache_Controller.Exclusive_Unblock::total      5616821                       (Unspecified)
system.caches.L2Cache_Controller.NP.L1_GET_INSTR |        1246     13.37%     13.37% |        1344     14.42%     27.79% |        1114     11.95%     39.74% |         992     10.64%     50.39% |        1120     12.02%     62.40% |        1108     11.89%     74.29% |        1238     13.28%     87.58% |        1158     12.42%    100.00% (Unspecified)
system.caches.L2Cache_Controller.NP.L1_GET_INSTR::total         9320                       (Unspecified)
system.caches.L2Cache_Controller.NP.L1_GETS |      334537     12.52%     12.52% |      334544     12.52%     25.05% |      332665     12.45%     37.50% |      333522     12.48%     49.98% |      333675     12.49%     62.47% |      333801     12.50%     74.97% |      334187     12.51%     87.48% |      334470     12.52%    100.00% (Unspecified)
system.caches.L2Cache_Controller.NP.L1_GETS::total      2671401                       (Unspecified)
system.caches.L2Cache_Controller.NP.L1_GETX |      367363     12.53%     12.53% |      366539     12.50%     25.03% |      364366     12.43%     37.46% |      365896     12.48%     49.94% |      366014     12.49%     62.43% |      368385     12.57%     75.00% |      366148     12.49%     87.49% |      366863     12.51%    100.00% (Unspecified)
system.caches.L2Cache_Controller.NP.L1_GETX::total      2931574                       (Unspecified)
system.caches.L2Cache_Controller.NP.L1_PUTX_old |           0      0.00%      0.00% |           0      0.00%      0.00% |           0      0.00%      0.00% |           0      0.00%      0.00% |           1    100.00%    100.00% |           0      0.00%    100.00% |           0      0.00%    100.00% |           0      0.00%    100.00% (Unspecified)
system.caches.L2Cache_Controller.NP.L1_PUTX_old::total            1                       (Unspecified)
system.caches.L2Cache_Controller.SS.L1_GET_INSTR |       11038     12.91%     12.91% |       12809     14.98%     27.90% |        9936     11.62%     39.52% |        5472      6.40%     45.92% |       10254     11.99%     57.91% |       12538     14.67%     72.58% |       11523     13.48%     86.06% |       11916     13.94%    100.00% (Unspecified)
system.caches.L2Cache_Controller.SS.L1_GET_INSTR::total        85486                       (Unspecified)
system.caches.L2Cache_Controller.SS.L1_GETS |       11429     22.46%     22.46% |        7044     13.84%     36.31% |        7970     15.66%     51.97% |        5920     11.63%     63.61% |        5130     10.08%     73.69% |        2938      5.77%     79.46% |        3227      6.34%     85.80% |        7223     14.20%    100.00% (Unspecified)
system.caches.L2Cache_Controller.SS.L1_GETS::total        50881                       (Unspecified)
system.caches.L2Cache_Controller.SS.L1_GETX |         118     59.60%     59.60% |           0      0.00%     59.60% |           0      0.00%     59.60% |           0      0.00%     59.60% |           0      0.00%     59.60% |           0      0.00%     59.60% |          80     40.40%    100.00% |           0      0.00%    100.00% (Unspecified)
system.caches.L2Cache_Controller.SS.L1_GETX::total          198                       (Unspecified)
system.caches.L2Cache_Controller.SS.L1_UPGRADE |           1      0.40%      0.40% |          81     32.53%     32.93% |           0      0.00%     32.93% |           0      0.00%     32.93% |           0      0.00%     32.93% |           0      0.00%     32.93% |         167     67.07%    100.00% |           0      0.00%    100.00% (Unspecified)
system.caches.L2Cache_Controller.SS.L1_UPGRADE::total          249                       (Unspecified)
system.caches.L2Cache_Controller.SS.L2_Replacement |          80     64.00%     64.00% |          22     17.60%     81.60% |           0      0.00%     81.60% |           0      0.00%     81.60% |           1      0.80%     82.40% |           0      0.00%     82.40% |          22     17.60%    100.00% |           0      0.00%    100.00% (Unspecified)
system.caches.L2Cache_Controller.SS.L2_Replacement::total          125                       (Unspecified)
system.caches.L2Cache_Controller.SS.L2_Replacement_clean |        1578     14.07%     14.07% |        1599     14.26%     28.32% |        1407     12.54%     40.87% |        1221     10.89%     51.75% |        1309     11.67%     63.42% |        1290     11.50%     74.92% |        1360     12.12%     87.05% |        1453     12.95%    100.00% (Unspecified)
system.caches.L2Cache_Controller.SS.L2_Replacement_clean::total        11217                       (Unspecified)
system.caches.L2Cache_Controller.M.L1_GET_INSTR |          13     16.05%     16.05% |          12     14.81%     30.86% |          11     13.58%     44.44% |          10     12.35%     56.79% |           9     11.11%     67.90% |           8      9.88%     77.78% |           7      8.64%     86.42% |          11     13.58%    100.00% (Unspecified)
system.caches.L2Cache_Controller.M.L1_GET_INSTR::total           81                       (Unspecified)
system.caches.L2Cache_Controller.M.L1_GETS |        1220     11.49%     11.49% |        1612     15.18%     26.68% |        1172     11.04%     37.72% |        1140     10.74%     48.46% |        1380     13.00%     61.45% |        1712     16.13%     77.58% |        1069     10.07%     87.65% |        1311     12.35%    100.00% (Unspecified)
system.caches.L2Cache_Controller.M.L1_GETS::total        10616                       (Unspecified)
system.caches.L2Cache_Controller.M.L1_GETX |         175      4.51%      4.51% |          59      1.52%      6.03% |         291      7.49%     13.52% |         314      8.09%     21.61% |         668     17.20%     38.81% |         912     23.49%     62.30% |         765     19.70%     82.00% |         699     18.00%    100.00% (Unspecified)
system.caches.L2Cache_Controller.M.L1_GETX::total         3883                       (Unspecified)
system.caches.L2Cache_Controller.M.L2_Replacement |      370676     12.53%     12.53% |      369403     12.48%     25.01% |      368006     12.43%     37.44% |      369563     12.49%     49.93% |      368947     12.47%     62.40% |      371862     12.57%     74.96% |      369803     12.50%     87.46% |      371227     12.54%    100.00% (Unspecified)
system.caches.L2Cache_Controller.M.L2_Replacement::total      2959487                       (Unspecified)
system.caches.L2Cache_Controller.M.L2_Replacement_clean |      328344     12.50%     12.50% |      329302     12.54%     25.04% |      328047     12.49%     37.53% |      327728     12.48%     50.00% |      328723     12.51%     62.52% |      328031     12.49%     75.01% |      328619     12.51%     87.52% |      327919     12.48%    100.00% (Unspecified)
system.caches.L2Cache_Controller.M.L2_Replacement_clean::total      2626713                       (Unspecified)
system.caches.L2Cache_Controller.MT.L1_GETS |         377     25.98%     25.98% |         231     15.92%     41.90% |         143      9.86%     51.76% |         108      7.44%     59.20% |          74      5.10%     64.30% |          66      4.55%     68.85% |         350     24.12%     92.97% |         102      7.03%    100.00% (Unspecified)
system.caches.L2Cache_Controller.MT.L1_GETS::total         1451                       (Unspecified)
system.caches.L2Cache_Controller.MT.L1_GETX |           1     50.00%     50.00% |           0      0.00%     50.00% |           0      0.00%     50.00% |           0      0.00%     50.00% |           0      0.00%     50.00% |           0      0.00%     50.00% |           1     50.00%    100.00% |           0      0.00%    100.00% (Unspecified)
system.caches.L2Cache_Controller.MT.L1_GETX::total            2                       (Unspecified)
system.caches.L2Cache_Controller.MT.L1_PUTX |      697228     12.51%     12.51% |      697196     12.51%     25.01% |      694323     12.45%     37.46% |      695552     12.48%     49.94% |      696534     12.49%     62.43% |      699350     12.54%     74.98% |      697071     12.50%     87.48% |      697975     12.52%    100.00% (Unspecified)
system.caches.L2Cache_Controller.MT.L1_PUTX::total      5575229                       (Unspecified)
system.caches.L2Cache_Controller.MT.L2_Replacement |          39     42.39%     42.39% |           9      9.78%     52.17% |           0      0.00%     52.17% |           4      4.35%     56.52% |           6      6.52%     63.04% |          16     17.39%     80.43% |          10     10.87%     91.30% |           8      8.70%    100.00% (Unspecified)
system.caches.L2Cache_Controller.MT.L2_Replacement::total           92                       (Unspecified)
system.caches.L2Cache_Controller.MT.L2_Replacement_clean |        2429     16.57%     16.57% |        2092     14.27%     30.84% |         685      4.67%     35.51% |        1894     12.92%     48.43% |        1823     12.43%     60.86% |        2095     14.29%     75.15% |        1759     12.00%     87.15% |        1884     12.85%    100.00% (Unspecified)
system.caches.L2Cache_Controller.MT.L2_Replacement_clean::total        14661                       (Unspecified)
system.caches.L2Cache_Controller.M_I.L1_GET_INSTR |           9     18.75%     18.75% |           8     16.67%     35.42% |           0      0.00%     35.42% |           0      0.00%     35.42% |           0      0.00%     35.42% |           0      0.00%     35.42% |           6     12.50%     47.92% |          25     52.08%    100.00% (Unspecified)
system.caches.L2Cache_Controller.M_I.L1_GET_INSTR::total           48                       (Unspecified)
system.caches.L2Cache_Controller.M_I.L1_GETS |           4     28.57%     28.57% |           0      0.00%     28.57% |           1      7.14%     35.71% |           0      0.00%     35.71% |           0      0.00%     35.71% |           0      0.00%     35.71% |           7     50.00%     85.71% |           2     14.29%    100.00% (Unspecified)
system.caches.L2Cache_Controller.M_I.L1_GETS::total           14                       (Unspecified)
system.caches.L2Cache_Controller.M_I.L1_GETX |           4     36.36%     36.36% |           3     27.27%     63.64% |           0      0.00%     63.64% |           1      9.09%     72.73% |           1      9.09%     81.82% |           2     18.18%    100.00% |           0      0.00%    100.00% |           0      0.00%    100.00% (Unspecified)
system.caches.L2Cache_Controller.M_I.L1_GETX::total           11                       (Unspecified)
system.caches.L2Cache_Controller.M_I.Mem_Ack |      703146     12.53%     12.53% |      702427     12.52%     25.04% |      698145     12.44%     37.48% |      700410     12.48%     49.96% |      700809     12.49%     62.45% |      703294     12.53%     74.98% |      701572     12.50%     87.48% |      702491     12.52%    100.00% (Unspecified)
system.caches.L2Cache_Controller.M_I.Mem_Ack::total      5612294                       (Unspecified)
system.caches.L2Cache_Controller.MT_I.WB_Data |          39     42.39%     42.39% |           9      9.78%     52.17% |           0      0.00%     52.17% |           4      4.35%     56.52% |           6      6.52%     63.04% |          16     17.39%     80.43% |          10     10.87%     91.30% |           8      8.70%    100.00% (Unspecified)
system.caches.L2Cache_Controller.MT_I.WB_Data::total           92                       (Unspecified)
system.caches.L2Cache_Controller.MCT_I.L1_PUTX_old |           0      0.00%      0.00% |           0      0.00%      0.00% |           0      0.00%      0.00% |           0      0.00%      0.00% |           1    100.00%    100.00% |           0      0.00%    100.00% |           0      0.00%    100.00% |           0      0.00%    100.00% (Unspecified)
system.caches.L2Cache_Controller.MCT_I.L1_PUTX_old::total            1                       (Unspecified)
system.caches.L2Cache_Controller.MCT_I.WB_Data |        1359     15.28%     15.28% |        1206     13.56%     28.84% |         405      4.55%     33.40% |        1135     12.76%     46.16% |        1073     12.07%     58.23% |        1371     15.42%     73.64% |        1126     12.66%     86.30% |        1218     13.70%    100.00% (Unspecified)
system.caches.L2Cache_Controller.MCT_I.WB_Data::total         8893                       (Unspecified)
system.caches.L2Cache_Controller.MCT_I.Ack_all |        1070     18.55%     18.55% |         886     15.36%     33.91% |         280      4.85%     38.77% |         759     13.16%     51.92% |         750     13.00%     64.93% |         724     12.55%     77.48% |         633     10.97%     88.45% |         666     11.55%    100.00% (Unspecified)
system.caches.L2Cache_Controller.MCT_I.Ack_all::total         5768                       (Unspecified)
system.caches.L2Cache_Controller.I_I.Ack |        9304     14.32%     14.32% |        8740     13.45%     27.77% |        7954     12.24%     40.01% |        7014     10.80%     50.81% |        7983     12.29%     63.10% |        7843     12.07%     75.17% |        8254     12.70%     87.87% |        7880     12.13%    100.00% (Unspecified)
system.caches.L2Cache_Controller.I_I.Ack::total        64972                       (Unspecified)
system.caches.L2Cache_Controller.I_I.Ack_all |        1578     14.07%     14.07% |        1599     14.26%     28.32% |        1407     12.54%     40.87% |        1221     10.89%     51.75% |        1309     11.67%     63.42% |        1290     11.50%     74.92% |        1360     12.12%     87.05% |        1453     12.95%    100.00% (Unspecified)
system.caches.L2Cache_Controller.I_I.Ack_all::total        11217                       (Unspecified)
system.caches.L2Cache_Controller.S_I.Ack |         553     64.68%     64.68% |         147     17.19%     81.87% |           0      0.00%     81.87% |           0      0.00%     81.87% |           1      0.12%     81.99% |           0      0.00%     81.99% |         154     18.01%    100.00% |           0      0.00%    100.00% (Unspecified)
system.caches.L2Cache_Controller.S_I.Ack::total          855                       (Unspecified)
system.caches.L2Cache_Controller.S_I.Ack_all |          80     64.00%     64.00% |          22     17.60%     81.60% |           0      0.00%     81.60% |           0      0.00%     81.60% |           1      0.80%     82.40% |           0      0.00%     82.40% |          22     17.60%    100.00% |           0      0.00%    100.00% (Unspecified)
system.caches.L2Cache_Controller.S_I.Ack_all::total          125                       (Unspecified)
system.caches.L2Cache_Controller.ISS.L1_GETS |         166     15.24%     15.24% |         135     12.40%     27.64% |         164     15.06%     42.70% |         122     11.20%     53.90% |         125     11.48%     65.38% |         119     10.93%     76.31% |          54      4.96%     81.27% |         204     18.73%    100.00% (Unspecified)
system.caches.L2Cache_Controller.ISS.L1_GETS::total         1089                       (Unspecified)
system.caches.L2Cache_Controller.ISS.Mem_Data |      334369     12.52%     12.52% |      334408     12.52%     25.04% |      332501     12.45%     37.50% |      333400     12.49%     49.98% |      333550     12.49%     62.47% |      333682     12.50%     74.97% |      334132     12.51%     87.48% |      334266     12.52%    100.00% (Unspecified)
system.caches.L2Cache_Controller.ISS.Mem_Data::total      2670308                       (Unspecified)
system.caches.L2Cache_Controller.IS.L1_GET_INSTR |         937     13.57%     13.57% |        1008     14.60%     28.17% |         756     10.95%     39.12% |         639      9.25%     48.37% |         765     11.08%     59.45% |         796     11.53%     70.98% |        1239     17.94%     88.92% |         765     11.08%    100.00% (Unspecified)
system.caches.L2Cache_Controller.IS.L1_GET_INSTR::total         6905                       (Unspecified)
system.caches.L2Cache_Controller.IS.L1_GETS |         149     15.55%     15.55% |         183     19.10%     34.66% |         121     12.63%     47.29% |          85      8.87%     56.16% |          89      9.29%     65.45% |         135     14.09%     79.54% |          30      3.13%     82.67% |         166     17.33%    100.00% (Unspecified)
system.caches.L2Cache_Controller.IS.L1_GETS::total          958                       (Unspecified)
system.caches.L2Cache_Controller.IS.Mem_Data |        1412     13.57%     13.57% |        1479     14.21%     27.77% |        1278     12.28%     40.05% |        1114     10.70%     50.75% |        1245     11.96%     62.71% |        1227     11.79%     74.50% |        1292     12.41%     86.92% |        1362     13.08%    100.00% (Unspecified)
system.caches.L2Cache_Controller.IS.Mem_Data::total        10409                       (Unspecified)
system.caches.L2Cache_Controller.IM.Mem_Data |      367363     12.53%     12.53% |      366539     12.50%     25.03% |      364366     12.43%     37.46% |      365894     12.48%     49.94% |      366011     12.49%     62.43% |      368385     12.57%     75.00% |      366146     12.49%     87.49% |      366862     12.51%    100.00% (Unspecified)
system.caches.L2Cache_Controller.IM.Mem_Data::total      2931566                       (Unspecified)
system.caches.L2Cache_Controller.SS_MB.L1_GETS |           0      0.00%      0.00% |           0      0.00%      0.00% |           0      0.00%      0.00% |           0      0.00%      0.00% |           0      0.00%      0.00% |           0      0.00%      0.00% |         326    100.00%    100.00% |           0      0.00%    100.00% (Unspecified)
system.caches.L2Cache_Controller.SS_MB.L1_GETS::total          326                       (Unspecified)
system.caches.L2Cache_Controller.SS_MB.Exclusive_Unblock |         119     26.62%     26.62% |          81     18.12%     44.74% |           0      0.00%     44.74% |           0      0.00%     44.74% |           0      0.00%     44.74% |           0      0.00%     44.74% |         247     55.26%    100.00% |           0      0.00%    100.00% (Unspecified)
system.caches.L2Cache_Controller.SS_MB.Exclusive_Unblock::total          447                       (Unspecified)
system.caches.L2Cache_Controller.MT_MB.L1_GETS |           0      0.00%      0.00% |           1     14.29%     14.29% |           4     57.14%     71.43% |           0      0.00%     71.43% |           0      0.00%     71.43% |           0      0.00%     71.43% |           0      0.00%     71.43% |           2     28.57%    100.00% (Unspecified)
system.caches.L2Cache_Controller.MT_MB.L1_GETS::total            7                       (Unspecified)
system.caches.L2Cache_Controller.MT_MB.Exclusive_Unblock |      703128     12.52%     12.52% |      702618     12.51%     25.03% |      698330     12.43%     37.46% |      700748     12.48%     49.94% |      701609     12.49%     62.43% |      704691     12.55%     74.98% |      702113     12.50%     87.48% |      703137     12.52%    100.00% (Unspecified)
system.caches.L2Cache_Controller.MT_MB.Exclusive_Unblock::total      5616374                       (Unspecified)
system.caches.L2Cache_Controller.MT_IIB.L1_GETS |          55     13.58%     13.58% |          53     13.09%     26.67% |          12      2.96%     29.63% |           2      0.49%     30.12% |           6      1.48%     31.60% |          10      2.47%     34.07% |         255     62.96%     97.04% |          12      2.96%    100.00% (Unspecified)
system.caches.L2Cache_Controller.MT_IIB.L1_GETS::total          405                       (Unspecified)
system.caches.L2Cache_Controller.MT_IIB.WB_Data |         196     35.00%     35.00% |          98     17.50%     52.50% |           0      0.00%     52.50% |           0      0.00%     52.50% |           1      0.18%     52.68% |           0      0.00%     52.68% |         265     47.32%    100.00% |           0      0.00%    100.00% (Unspecified)
system.caches.L2Cache_Controller.MT_IIB.WB_Data::total          560                       (Unspecified)
system.caches.L2Cache_Controller.MT_IIB.WB_Data_clean |         181     20.31%     20.31% |         133     14.93%     35.24% |         143     16.05%     51.29% |         108     12.12%     63.41% |          73      8.19%     71.60% |          66      7.41%     79.01% |          85      9.54%     88.55% |         102     11.45%    100.00% (Unspecified)
system.caches.L2Cache_Controller.MT_IIB.WB_Data_clean::total          891                       (Unspecified)
system.caches.L2Cache_Controller.MT_SB.L1_GETS |           3     37.50%     37.50% |           1     12.50%     50.00% |           0      0.00%     50.00% |           0      0.00%     50.00% |           0      0.00%     50.00% |           0      0.00%     50.00% |           4     50.00%    100.00% |           0      0.00%    100.00% (Unspecified)
system.caches.L2Cache_Controller.MT_SB.L1_GETS::total            8                       (Unspecified)
system.caches.L2Cache_Controller.MT_SB.L1_UPGRADE |           0      0.00%      0.00% |           0      0.00%      0.00% |           0      0.00%      0.00% |           0      0.00%      0.00% |           0      0.00%      0.00% |           0      0.00%      0.00% |          71    100.00%    100.00% |           0      0.00%    100.00% (Unspecified)
system.caches.L2Cache_Controller.MT_SB.L1_UPGRADE::total           71                       (Unspecified)
system.caches.L2Cache_Controller.MT_SB.Unblock |         377     25.98%     25.98% |         231     15.92%     41.90% |         143      9.86%     51.76% |         108      7.44%     59.20% |          74      5.10%     64.30% |          66      4.55%     68.85% |         350     24.12%     92.97% |         102      7.03%    100.00% (Unspecified)
system.caches.L2Cache_Controller.MT_SB.Unblock::total         1451                       (Unspecified)
system.caches.RequestType.LD.latency_hist_seqr::bucket_size         1024                       (Unspecified)
system.caches.RequestType.LD.latency_hist_seqr::max_bucket        10239                       (Unspecified)
system.caches.RequestType.LD.latency_hist_seqr::samples      7761783                       (Unspecified)
system.caches.RequestType.LD.latency_hist_seqr::mean   362.690194                       (Unspecified)
system.caches.RequestType.LD.latency_hist_seqr::gmean    10.772334                       (Unspecified)
system.caches.RequestType.LD.latency_hist_seqr::stdev   599.070082                       (Unspecified)
system.caches.RequestType.LD.latency_hist_seqr |     6657863     85.78%     85.78% |      927803     11.95%     97.73% |      156451      2.02%     99.75% |       19248      0.25%     99.99% |         415      0.01%    100.00% |           3      0.00%    100.00% |           0      0.00%    100.00% |           0      0.00%    100.00% |           0      0.00%    100.00% |           0      0.00%    100.00% (Unspecified)
system.caches.RequestType.LD.latency_hist_seqr::total      7761783                       (Unspecified)
system.caches.RequestType.LD.hit_latency_hist_seqr::bucket_size            1                       (Unspecified)
system.caches.RequestType.LD.hit_latency_hist_seqr::max_bucket            9                       (Unspecified)
system.caches.RequestType.LD.hit_latency_hist_seqr::samples      5025391                       (Unspecified)
system.caches.RequestType.LD.hit_latency_hist_seqr::mean     1.000157                       (Unspecified)
system.caches.RequestType.LD.hit_latency_hist_seqr::gmean     1.000109                       (Unspecified)
system.caches.RequestType.LD.hit_latency_hist_seqr::stdev     0.012513                       (Unspecified)
system.caches.RequestType.LD.hit_latency_hist_seqr |           0      0.00%      0.00% |     5024604     99.98%     99.98% |         787      0.02%    100.00% |           0      0.00%    100.00% |           0      0.00%    100.00% |           0      0.00%    100.00% |           0      0.00%    100.00% |           0      0.00%    100.00% |           0      0.00%    100.00% |           0      0.00%    100.00% (Unspecified)
system.caches.RequestType.LD.hit_latency_hist_seqr::total      5025391                       (Unspecified)
system.caches.RequestType.LD.miss_latency_hist_seqr::bucket_size         1024                       (Unspecified)
system.caches.RequestType.LD.miss_latency_hist_seqr::max_bucket        10239                       (Unspecified)
system.caches.RequestType.LD.miss_latency_hist_seqr::samples      2736392                       (Unspecified)
system.caches.RequestType.LD.miss_latency_hist_seqr::mean  1026.934885                       (Unspecified)
system.caches.RequestType.LD.miss_latency_hist_seqr::gmean   847.349987                       (Unspecified)
system.caches.RequestType.LD.miss_latency_hist_seqr::stdev   580.091737                       (Unspecified)
system.caches.RequestType.LD.miss_latency_hist_seqr |     1632472     59.66%     59.66% |      927803     33.91%     93.56% |      156451      5.72%     99.28% |       19248      0.70%     99.98% |         415      0.02%    100.00% |           3      0.00%    100.00% |           0      0.00%    100.00% |           0      0.00%    100.00% |           0      0.00%    100.00% |           0      0.00%    100.00% (Unspecified)
system.caches.RequestType.LD.miss_latency_hist_seqr::total      2736392                       (Unspecified)
system.caches.RequestType.ST.latency_hist_seqr::bucket_size         1024                       (Unspecified)
system.caches.RequestType.ST.latency_hist_seqr::max_bucket        10239                       (Unspecified)
system.caches.RequestType.ST.latency_hist_seqr::samples     23447405                       (Unspecified)
system.caches.RequestType.ST.latency_hist_seqr::mean   161.544007                       (Unspecified)
system.caches.RequestType.ST.latency_hist_seqr::gmean     2.412764                       (Unspecified)
system.caches.RequestType.ST.latency_hist_seqr::stdev   480.544654                       (Unspecified)
system.caches.RequestType.ST.latency_hist_seqr |    21706291     92.57%     92.57% |     1410524      6.02%     98.59% |      273978      1.17%     99.76% |       56094      0.24%    100.00% |         515      0.00%    100.00% |           3      0.00%    100.00% |           0      0.00%    100.00% |           0      0.00%    100.00% |           0      0.00%    100.00% |           0      0.00%    100.00% (Unspecified)
system.caches.RequestType.ST.latency_hist_seqr::total     23447405                       (Unspecified)
system.caches.RequestType.ST.hit_latency_hist_seqr::bucket_size           64                       (Unspecified)
system.caches.RequestType.ST.hit_latency_hist_seqr::max_bucket          639                       (Unspecified)
system.caches.RequestType.ST.hit_latency_hist_seqr::samples     20522397                       (Unspecified)
system.caches.RequestType.ST.hit_latency_hist_seqr::mean     1.003819                       (Unspecified)
system.caches.RequestType.ST.hit_latency_hist_seqr::gmean     1.002591                       (Unspecified)
system.caches.RequestType.ST.hit_latency_hist_seqr::stdev     0.193878                       (Unspecified)
system.caches.RequestType.ST.hit_latency_hist_seqr |    20522392    100.00%    100.00% |           0      0.00%    100.00% |           1      0.00%    100.00% |           0      0.00%    100.00% |           2      0.00%    100.00% |           0      0.00%    100.00% |           0      0.00%    100.00% |           1      0.00%    100.00% |           1      0.00%    100.00% |           0      0.00%    100.00% (Unspecified)
system.caches.RequestType.ST.hit_latency_hist_seqr::total     20522397                       (Unspecified)
system.caches.RequestType.ST.miss_latency_hist_seqr::bucket_size         1024                       (Unspecified)
system.caches.RequestType.ST.miss_latency_hist_seqr::max_bucket        10239                       (Unspecified)
system.caches.RequestType.ST.miss_latency_hist_seqr::samples      2925008                       (Unspecified)
system.caches.RequestType.ST.miss_latency_hist_seqr::mean  1287.923649                       (Unspecified)
system.caches.RequestType.ST.miss_latency_hist_seqr::gmean  1143.999763                       (Unspecified)
system.caches.RequestType.ST.miss_latency_hist_seqr::stdev   633.689423                       (Unspecified)
system.caches.RequestType.ST.miss_latency_hist_seqr |     1183894     40.47%     40.47% |     1410524     48.22%     88.70% |      273978      9.37%     98.06% |       56094      1.92%     99.98% |         515      0.02%    100.00% |           3      0.00%    100.00% |           0      0.00%    100.00% |           0      0.00%    100.00% |           0      0.00%    100.00% |           0      0.00%    100.00% (Unspecified)
system.caches.RequestType.ST.miss_latency_hist_seqr::total      2925008                       (Unspecified)
system.caches.RequestType.IFETCH.latency_hist_seqr::bucket_size          512                       (Unspecified)
system.caches.RequestType.IFETCH.latency_hist_seqr::max_bucket         5119                       (Unspecified)
system.caches.RequestType.IFETCH.latency_hist_seqr::samples     12722795                       (Unspecified)
system.caches.RequestType.IFETCH.latency_hist_seqr::mean     1.453326                       (Unspecified)
system.caches.RequestType.IFETCH.latency_hist_seqr::gmean     1.024678                       (Unspecified)
system.caches.RequestType.IFETCH.latency_hist_seqr::stdev    13.453066                       (Unspecified)
system.caches.RequestType.IFETCH.latency_hist_seqr |    12721840     99.99%     99.99% |         477      0.00%    100.00% |         284      0.00%    100.00% |         168      0.00%    100.00% |          19      0.00%    100.00% |           7      0.00%    100.00% |           0      0.00%    100.00% |           0      0.00%    100.00% |           0      0.00%    100.00% |           0      0.00%    100.00% (Unspecified)
system.caches.RequestType.IFETCH.latency_hist_seqr::total     12722795                       (Unspecified)
system.caches.RequestType.IFETCH.hit_latency_hist_seqr::bucket_size            1                       (Unspecified)
system.caches.RequestType.IFETCH.hit_latency_hist_seqr::max_bucket            9                       (Unspecified)
system.caches.RequestType.IFETCH.hit_latency_hist_seqr::samples     12621003                       (Unspecified)
system.caches.RequestType.IFETCH.hit_latency_hist_seqr::mean     1.000000                       (Unspecified)
system.caches.RequestType.IFETCH.hit_latency_hist_seqr::gmean     1.000000                       (Unspecified)
system.caches.RequestType.IFETCH.hit_latency_hist_seqr::stdev     0.000488                       (Unspecified)
system.caches.RequestType.IFETCH.hit_latency_hist_seqr |           0      0.00%      0.00% |    12621000    100.00%    100.00% |           3      0.00%    100.00% |           0      0.00%    100.00% |           0      0.00%    100.00% |           0      0.00%    100.00% |           0      0.00%    100.00% |           0      0.00%    100.00% |           0      0.00%    100.00% |           0      0.00%    100.00% (Unspecified)
system.caches.RequestType.IFETCH.hit_latency_hist_seqr::total     12621003                       (Unspecified)
system.caches.RequestType.IFETCH.miss_latency_hist_seqr::bucket_size          512                       (Unspecified)
system.caches.RequestType.IFETCH.miss_latency_hist_seqr::max_bucket         5119                       (Unspecified)
system.caches.RequestType.IFETCH.miss_latency_hist_seqr::samples       101792                       (Unspecified)
system.caches.RequestType.IFETCH.miss_latency_hist_seqr::mean    57.660297                       (Unspecified)
system.caches.RequestType.IFETCH.miss_latency_hist_seqr::gmean    21.052569                       (Unspecified)
system.caches.RequestType.IFETCH.miss_latency_hist_seqr::stdev   139.414729                       (Unspecified)
system.caches.RequestType.IFETCH.miss_latency_hist_seqr |      100837     99.06%     99.06% |         477      0.47%     99.53% |         284      0.28%     99.81% |         168      0.17%     99.97% |          19      0.02%     99.99% |           7      0.01%    100.00% |           0      0.00%    100.00% |           0      0.00%    100.00% |           0      0.00%    100.00% |           0      0.00%    100.00% (Unspecified)
system.caches.RequestType.IFETCH.miss_latency_hist_seqr::total       101792                       (Unspecified)
system.caches.RequestType.RMW_Read.latency_hist_seqr::bucket_size         1024                       (Unspecified)
system.caches.RequestType.RMW_Read.latency_hist_seqr::max_bucket        10239                       (Unspecified)
system.caches.RequestType.RMW_Read.latency_hist_seqr::samples        28222                       (Unspecified)
system.caches.RequestType.RMW_Read.latency_hist_seqr::mean   272.626497                       (Unspecified)
system.caches.RequestType.RMW_Read.latency_hist_seqr::gmean     8.418154                       (Unspecified)
system.caches.RequestType.RMW_Read.latency_hist_seqr::stdev   559.783776                       (Unspecified)
system.caches.RequestType.RMW_Read.latency_hist_seqr |       25366     89.88%     89.88% |        2242      7.94%     97.82% |         524      1.86%     99.68% |          79      0.28%     99.96% |          10      0.04%    100.00% |           1      0.00%    100.00% |           0      0.00%    100.00% |           0      0.00%    100.00% |           0      0.00%    100.00% |           0      0.00%    100.00% (Unspecified)
system.caches.RequestType.RMW_Read.latency_hist_seqr::total        28222                       (Unspecified)
system.caches.RequestType.RMW_Read.hit_latency_hist_seqr::bucket_size          512                       (Unspecified)
system.caches.RequestType.RMW_Read.hit_latency_hist_seqr::max_bucket         5119                       (Unspecified)
system.caches.RequestType.RMW_Read.hit_latency_hist_seqr::samples        19082                       (Unspecified)
system.caches.RequestType.RMW_Read.hit_latency_hist_seqr::mean    17.891888                       (Unspecified)
system.caches.RequestType.RMW_Read.hit_latency_hist_seqr::gmean     1.381170                       (Unspecified)
system.caches.RequestType.RMW_Read.hit_latency_hist_seqr::stdev   164.351968                       (Unspecified)
system.caches.RequestType.RMW_Read.hit_latency_hist_seqr |       18842     98.74%     98.74% |         127      0.67%     99.41% |          59      0.31%     99.72% |          18      0.09%     99.81% |          15      0.08%     99.89% |          11      0.06%     99.95% |           6      0.03%     99.98% |           2      0.01%     99.99% |           2      0.01%    100.00% |           0      0.00%    100.00% (Unspecified)
system.caches.RequestType.RMW_Read.hit_latency_hist_seqr::total        19082                       (Unspecified)
system.caches.RequestType.RMW_Read.miss_latency_hist_seqr::bucket_size         1024                       (Unspecified)
system.caches.RequestType.RMW_Read.miss_latency_hist_seqr::max_bucket        10239                       (Unspecified)
system.caches.RequestType.RMW_Read.miss_latency_hist_seqr::samples         9140                       (Unspecified)
system.caches.RequestType.RMW_Read.miss_latency_hist_seqr::mean   804.447702                       (Unspecified)
system.caches.RequestType.RMW_Read.miss_latency_hist_seqr::gmean   366.466337                       (Unspecified)
system.caches.RequestType.RMW_Read.miss_latency_hist_seqr::stdev   702.062545                       (Unspecified)
system.caches.RequestType.RMW_Read.miss_latency_hist_seqr |        6397     69.99%     69.99% |        2165     23.69%     93.68% |         498      5.45%     99.12% |          71      0.78%     99.90% |           8      0.09%     99.99% |           1      0.01%    100.00% |           0      0.00%    100.00% |           0      0.00%    100.00% |           0      0.00%    100.00% |           0      0.00%    100.00% (Unspecified)
system.caches.RequestType.RMW_Read.miss_latency_hist_seqr::total         9140                       (Unspecified)
system.caches.RequestType.Locked_RMW_Read.latency_hist_seqr::bucket_size          512                       (Unspecified)
system.caches.RequestType.Locked_RMW_Read.latency_hist_seqr::max_bucket         5119                       (Unspecified)
system.caches.RequestType.Locked_RMW_Read.latency_hist_seqr::samples         5684                       (Unspecified)
system.caches.RequestType.Locked_RMW_Read.latency_hist_seqr::mean   285.773223                       (Unspecified)
system.caches.RequestType.Locked_RMW_Read.latency_hist_seqr::gmean     6.765170                       (Unspecified)
system.caches.RequestType.Locked_RMW_Read.latency_hist_seqr::stdev   593.526534                       (Unspecified)
system.caches.RequestType.Locked_RMW_Read.latency_hist_seqr |        4360     76.71%     76.71% |         676     11.89%     88.60% |         347      6.10%     94.70% |         141      2.48%     97.19% |          89      1.57%     98.75% |          54      0.95%     99.70% |          11      0.19%     99.89% |           4      0.07%     99.96% |           2      0.04%    100.00% |           0      0.00%    100.00% (Unspecified)
system.caches.RequestType.Locked_RMW_Read.latency_hist_seqr::total         5684                       (Unspecified)
system.caches.RequestType.Locked_RMW_Read.hit_latency_hist_seqr::bucket_size            1                       (Unspecified)
system.caches.RequestType.Locked_RMW_Read.hit_latency_hist_seqr::max_bucket            9                       (Unspecified)
system.caches.RequestType.Locked_RMW_Read.hit_latency_hist_seqr::samples         3934                       (Unspecified)
[...]
system.o3Cpu7.iew.squashCycles                   5434                       # Number of cycles IEW is squashing (Cycle)
system.o3Cpu7.iew.blockCycles                41876110                       # Number of cycles IEW is blocking (Cycle)
system.o3Cpu7.iew.unblockCycles             152751459                       # Number of cycles IEW is unblocking (Cycle)
system.o3Cpu7.iew.dispatchedInsts            13321935                       # Number of instructions dispatched to IQ (Count)
system.o3Cpu7.iew.dispSquashedInsts              1952                       # Number of squashed instructions skipped by dispatch (Count)
system.o3Cpu7.iew.dispLoadInsts               2704343                       # Number of dispatched load instructions (Count)
system.o3Cpu7.iew.dispStoreInsts              2949185                       # Number of dispatched store instructions (Count)
system.o3Cpu7.iew.dispNonSpecInsts               3685                       # Number of dispatched non-speculative instructions (Count)
system.o3Cpu7.iew.iqFullEvents                  37904                       # Number of times the IQ has become full, causing a stall (Count)
system.o3Cpu7.iew.lsqFullEvents             152635266                       # Number of times the LSQ has become full, causing a stall (Count)
system.o3Cpu7.iew.memOrderViolationEvents          236                       # Number of memory order violations (Count)
system.o3Cpu7.iew.predictedTakenIncorrect         4062                       # Number of branches that were predicted taken incorrectly (Count)
system.o3Cpu7.iew.predictedNotTakenIncorrect         1006                       # Number of branches that were predicted not taken incorrectly (Count)
system.o3Cpu7.iew.branchMispredicts              5068                       # Number of branch mispredicts detected at execute (Count)
system.o3Cpu7.iew.instsToCommit              13298764                       # Cumulative count of insts sent to commit (Count)
system.o3Cpu7.iew.writebackCount             13296416                       # Cumulative count of insts written-back (Count)
system.o3Cpu7.iew.producerInst                6363249                       # Number of instructions producing a value (Count)
system.o3Cpu7.iew.consumerInst               11513081                       # Number of instructions consuming a value (Count)
system.o3Cpu7.iew.wbRate                     0.027348                       # Insts written-back per cycle ((Count/Cycle))
system.o3Cpu7.iew.wbFanout                   0.552697                       # Average fanout of values written-back ((Count/Count))
system.o3Cpu7.interrupts.clk_domain.clock         3200                       # Clock period in ticks (Tick)
system.o3Cpu7.lsq0.forwLoads                     8228                       # Number of loads that had data forwarded from stores (Count)
system.o3Cpu7.lsq0.squashedLoads                 9196                       # Number of loads squashed (Count)
system.o3Cpu7.lsq0.ignoredResponses                 1                       # Number of memory responses ignored because the instruction is squashed (Count)
system.o3Cpu7.lsq0.memOrderViolation              236                       # Number of memory ordering violations (Count)
system.o3Cpu7.lsq0.squashedStores                2577                       # Number of stores squashed (Count)
system.o3Cpu7.lsq0.rescheduledLoads                86                       # Number of loads that were rescheduled (Count)
system.o3Cpu7.lsq0.blockedByCache               29038                       # Number of times an access to memory failed due to the cache being blocked (Count)
system.o3Cpu7.lsq0.loadToUse::samples         2695138                       # Distribution of cycle latency between the first time a load is issued and its completion (Unspecified)
system.o3Cpu7.lsq0.loadToUse::mean         652.450820                       # Distribution of cycle latency between the first time a load is issued and its completion (Unspecified)
system.o3Cpu7.lsq0.loadToUse::stdev        674.441123                       # Distribution of cycle latency between the first time a load is issued and its completion (Unspecified)
system.o3Cpu7.lsq0.loadToUse::0-9              911714     33.83%     33.83% # Distribution of cycle latency between the first time a load is issued and its completion (Unspecified)
system.o3Cpu7.lsq0.loadToUse::10-19              9490      0.35%     34.18% # Distribution of cycle latency between the first time a load is issued and its completion (Unspecified)
system.o3Cpu7.lsq0.loadToUse::20-29             10256      0.38%     34.56% # Distribution of cycle latency between the first time a load is issued and its completion (Unspecified)
system.o3Cpu7.lsq0.loadToUse::30-39              9776      0.36%     34.92% # Distribution of cycle latency between the first time a load is issued and its completion (Unspecified)
system.o3Cpu7.lsq0.loadToUse::40-49             10857      0.40%     35.33% # Distribution of cycle latency between the first time a load is issued and its completion (Unspecified)
system.o3Cpu7.lsq0.loadToUse::50-59              3051      0.11%     35.44% # Distribution of cycle latency between the first time a load is issued and its completion (Unspecified)
system.o3Cpu7.lsq0.loadToUse::60-69              5706      0.21%     35.65% # Distribution of cycle latency between the first time a load is issued and its completion (Unspecified)
system.o3Cpu7.lsq0.loadToUse::70-79              4716      0.17%     35.83% # Distribution of cycle latency between the first time a load is issued and its completion (Unspecified)
system.o3Cpu7.lsq0.loadToUse::80-89              4588      0.17%     36.00% # Distribution of cycle latency between the first time a load is issued and its completion (Unspecified)
system.o3Cpu7.lsq0.loadToUse::90-99              3878      0.14%     36.14% # Distribution of cycle latency between the first time a load is issued and its completion (Unspecified)
system.o3Cpu7.lsq0.loadToUse::100-109            2411      0.09%     36.23% # Distribution of cycle latency between the first time a load is issued and its completion (Unspecified)
system.o3Cpu7.lsq0.loadToUse::110-119            2424      0.09%     36.32% # Distribution of cycle latency between the first time a load is issued and its completion (Unspecified)
system.o3Cpu7.lsq0.loadToUse::120-129            2138      0.08%     36.40% # Distribution of cycle latency between the first time a load is issued and its completion (Unspecified)
system.o3Cpu7.lsq0.loadToUse::130-139            3258      0.12%     36.52% # Distribution of cycle latency between the first time a load is issued and its completion (Unspecified)
system.o3Cpu7.lsq0.loadToUse::140-149            2710      0.10%     36.62% # Distribution of cycle latency between the first time a load is issued and its completion (Unspecified)
system.o3Cpu7.lsq0.loadToUse::150-159            2201      0.08%     36.70% # Distribution of cycle latency between the first time a load is issued and its completion (Unspecified)
system.o3Cpu7.lsq0.loadToUse::160-169            1926      0.07%     36.77% # Distribution of cycle latency between the first time a load is issued and its completion (Unspecified)
system.o3Cpu7.lsq0.loadToUse::170-179            2277      0.08%     36.86% # Distribution of cycle latency between the first time a load is issued and its completion (Unspecified)
system.o3Cpu7.lsq0.loadToUse::180-189            2924      0.11%     36.97% # Distribution of cycle latency between the first time a load is issued and its completion (Unspecified)
system.o3Cpu7.lsq0.loadToUse::190-199            2940      0.11%     37.08% # Distribution of cycle latency between the first time a load is issued and its completion (Unspecified)
system.o3Cpu7.lsq0.loadToUse::200-209            2554      0.09%     37.17% # Distribution of cycle latency between the first time a load is issued and its completion (Unspecified)
system.o3Cpu7.lsq0.loadToUse::210-219            2071      0.08%     37.25% # Distribution of cycle latency between the first time a load is issued and its completion (Unspecified)
system.o3Cpu7.lsq0.loadToUse::220-229            2328      0.09%     37.33% # Distribution of cycle latency between the first time a load is issued and its completion (Unspecified)
system.o3Cpu7.lsq0.loadToUse::230-239            3318      0.12%     37.46% # Distribution of cycle latency between the first time a load is issued and its completion (Unspecified)
system.o3Cpu7.lsq0.loadToUse::240-249            3232      0.12%     37.58% # Distribution of cycle latency between the first time a load is issued and its completion (Unspecified)
system.o3Cpu7.lsq0.loadToUse::250-259            3535      0.13%     37.71% # Distribution of cycle latency between the first time a load is issued and its completion (Unspecified)
system.o3Cpu7.lsq0.loadToUse::260-269            2260      0.08%     37.79% # Distribution of cycle latency between the first time a load is issued and its completion (Unspecified)
system.o3Cpu7.lsq0.loadToUse::270-279            2290      0.08%     37.88% # Distribution of cycle latency between the first time a load is issued and its completion (Unspecified)
system.o3Cpu7.lsq0.loadToUse::280-289            3612      0.13%     38.01% # Distribution of cycle latency between the first time a load is issued and its completion (Unspecified)
system.o3Cpu7.lsq0.loadToUse::290-299            4152      0.15%     38.16% # Distribution of cycle latency between the first time a load is issued and its completion (Unspecified)
system.o3Cpu7.lsq0.loadToUse::overflows       1666545     61.84%    100.00% # Distribution of cycle latency between the first time a load is issued and its completion (Unspecified)
system.o3Cpu7.lsq0.loadToUse::min_value             2                       # Distribution of cycle latency between the first time a load is issued and its completion (Unspecified)
system.o3Cpu7.lsq0.loadToUse::max_value          5260                       # Distribution of cycle latency between the first time a load is issued and its completion (Unspecified)
system.o3Cpu7.lsq0.loadToUse::total           2695138                       # Distribution of cycle latency between the first time a load is issued and its completion (Unspecified)
system.o3Cpu7.mmu.dtb.rdAccesses              2705494                       # TLB accesses on read requests (Count)
system.o3Cpu7.mmu.dtb.wrAccesses              2950692                       # TLB accesses on write requests (Count)
system.o3Cpu7.mmu.dtb.rdMisses                   3505                       # TLB misses on read requests (Count)
system.o3Cpu7.mmu.dtb.wrMisses                   2523                       # TLB misses on write requests (Count)
system.o3Cpu7.mmu.dtb.walker.power_state.pwrStateResidencyTicks::UNDEFINED  99253118400                       # Cumulative time (in ticks) in various power states (Tick)
system.o3Cpu7.mmu.itb.rdAccesses                    0                       # TLB accesses on read requests (Count)
system.o3Cpu7.mmu.itb.wrAccesses              1625310                       # TLB accesses on write requests (Count)
system.o3Cpu7.mmu.itb.rdMisses                      0                       # TLB misses on read requests (Count)
system.o3Cpu7.mmu.itb.wrMisses                    218                       # TLB misses on write requests (Count)
system.o3Cpu7.mmu.itb.walker.power_state.pwrStateResidencyTicks::UNDEFINED  99253118400                       # Cumulative time (in ticks) in various power states (Tick)
system.o3Cpu7.power_state.pwrStateResidencyTicks::OFF  99253118400                       # Cumulative time (in ticks) in various power states (Tick)
system.o3Cpu7.rename.squashCycles                5434                       # Number of cycles rename is squashing (Cycle)
system.o3Cpu7.rename.idleCycles               1386195                       # Number of cycles rename is idle (Cycle)
system.o3Cpu7.rename.blockCycles            198001209                       # Number of cycles rename is blocking (Cycle)
system.o3Cpu7.rename.serializeStallCycles      1175120                       # count of cycles rename stalled for serializing inst (Cycle)
system.o3Cpu7.rename.runCycles                2951896                       # Number of cycles rename is running (Cycle)
system.o3Cpu7.rename.unblockCycles          281912367                       # Number of cycles rename is unblocking (Cycle)
system.o3Cpu7.rename.renamedInsts            13345035                       # Number of instructions processed by rename (Count)
system.o3Cpu7.rename.ROBFullEvents             193623                       # Number of times rename has blocked due to ROB full (Count)
system.o3Cpu7.rename.IQFullEvents              483603                       # Number of times rename has blocked due to IQ full (Count)
system.o3Cpu7.rename.LQFullEvents             6280222                       # Number of times rename has blocked due to LQ full (Count)
system.o3Cpu7.rename.SQFullEvents           275127352                       # Number of times rename has blocked due to SQ full (Count)
system.o3Cpu7.rename.renamedOperands         16370706                       # Number of destination operands rename has renamed (Count)
system.o3Cpu7.rename.lookups                 41937363                       # Number of register rename lookups that rename has made (Count)
system.o3Cpu7.rename.intLookups               9278103                       # Number of integer rename lookups (Count)
system.o3Cpu7.rename.fpLookups               12291578                       # Number of floating rename lookups (Count)
system.o3Cpu7.rename.committedMaps           16245317                       # Number of HB maps that are committed (Count)
system.o3Cpu7.rename.undoneMaps                125359                       # Number of HB maps that are undone due to squashing (Count)
system.o3Cpu7.rename.serializing                 3633                       # count of serializing insts renamed (Count)
system.o3Cpu7.rename.tempSerializing             3684                       # count of temporary serializing insts renamed (Count)
system.o3Cpu7.rename.skidInsts                3167865                       # count of insts added to the skid buffer (Count)
system.o3Cpu7.rob.reads                     496395445                       # The number of ROB reads (Count)
system.o3Cpu7.rob.writes                     26655217                       # The number of ROB writes (Count)
system.o3Cpu7.thread_0.numInsts               8158329                       # Number of Instructions committed (Count)
system.o3Cpu7.thread_0.numOps                13270919                       # Number of Ops committed (Count)
system.o3Cpu7.thread_0.numMemRefs                   0                       # Number of Memory References (Count)
system.pc.bad_addr.power_state.pwrStateResidencyTicks::UNDEFINED  99253118400                       # Cumulative time (in ticks) in various power states (Tick)
system.pc.com_1.power_state.pwrStateResidencyTicks::UNDEFINED  99253118400                       # Cumulative time (in ticks) in various power states (Tick)
system.pc.default_bus.power_state.pwrStateResidencyTicks::UNDEFINED  99253118400                       # Cumulative time (in ticks) in various power states (Tick)
system.pc.empty_isa.power_state.pwrStateResidencyTicks::UNDEFINED  99253118400                       # Cumulative time (in ticks) in various power states (Tick)
system.pc.fake_com_2.power_state.pwrStateResidencyTicks::UNDEFINED  99253118400                       # Cumulative time (in ticks) in various power states (Tick)
system.pc.fake_com_3.power_state.pwrStateResidencyTicks::UNDEFINED  99253118400                       # Cumulative time (in ticks) in various power states (Tick)
system.pc.fake_com_4.power_state.pwrStateResidencyTicks::UNDEFINED  99253118400                       # Cumulative time (in ticks) in various power states (Tick)
system.pc.fake_floppy.power_state.pwrStateResidencyTicks::UNDEFINED  99253118400                       # Cumulative time (in ticks) in various power states (Tick)
system.pc.pci_host.power_state.pwrStateResidencyTicks::UNDEFINED  99253118400                       # Cumulative time (in ticks) in various power states (Tick)
system.pc.south_bridge.cmos.power_state.pwrStateResidencyTicks::UNDEFINED  99253118400                       # Cumulative time (in ticks) in various power states (Tick)
system.pc.south_bridge.dma1.power_state.pwrStateResidencyTicks::UNDEFINED  99253118400                       # Cumulative time (in ticks) in various power states (Tick)
system.pc.south_bridge.ide.disks0.IdeDisk.dmaReadFullPages            0                       # Number of full page size DMA reads (not PRD). (Count)
system.pc.south_bridge.ide.disks0.IdeDisk.dmaReadBytes            0                       # Number of bytes transfered via DMA reads (not PRD). (Byte)
system.pc.south_bridge.ide.disks0.IdeDisk.dmaReadTxs            0                       # Number of DMA read transactions (not PRD). (Count)
system.pc.south_bridge.ide.disks0.IdeDisk.dmaWriteFullPages            0                       # Number of full page size DMA writes. (Count)
system.pc.south_bridge.ide.disks0.IdeDisk.dmaWriteBytes            0                       # Number of bytes transfered via DMA writes. (Byte)
system.pc.south_bridge.ide.disks0.IdeDisk.dmaWriteTxs            0                       # Number of DMA write transactions. (Count)
system.pc.south_bridge.ide.disks1.IdeDisk.dmaReadFullPages            0                       # Number of full page size DMA reads (not PRD). (Count)
system.pc.south_bridge.ide.disks1.IdeDisk.dmaReadBytes            0                       # Number of bytes transfered via DMA reads (not PRD). (Byte)
system.pc.south_bridge.ide.disks1.IdeDisk.dmaReadTxs            0                       # Number of DMA read transactions (not PRD). (Count)
system.pc.south_bridge.ide.disks1.IdeDisk.dmaWriteFullPages            0                       # Number of full page size DMA writes. (Count)
system.pc.south_bridge.ide.disks1.IdeDisk.dmaWriteBytes            0                       # Number of bytes transfered via DMA writes. (Byte)
system.pc.south_bridge.ide.disks1.IdeDisk.dmaWriteTxs            0                       # Number of DMA write transactions. (Count)
system.pc.south_bridge.ide.power_state.pwrStateResidencyTicks::UNDEFINED  99253118400                       # Cumulative time (in ticks) in various power states (Tick)
system.pc.south_bridge.io_apic.power_state.pwrStateResidencyTicks::UNDEFINED  99253118400                       # Cumulative time (in ticks) in various power states (Tick)
system.pc.south_bridge.keyboard.power_state.pwrStateResidencyTicks::UNDEFINED  99253118400                       # Cumulative time (in ticks) in various power states (Tick)
system.pc.south_bridge.pic1.power_state.pwrStateResidencyTicks::UNDEFINED  99253118400                       # Cumulative time (in ticks) in various power states (Tick)
system.pc.south_bridge.pic2.power_state.pwrStateResidencyTicks::UNDEFINED  99253118400                       # Cumulative time (in ticks) in various power states (Tick)
system.pc.south_bridge.pit.power_state.pwrStateResidencyTicks::UNDEFINED  99253118400                       # Cumulative time (in ticks) in various power states (Tick)
system.pc.south_bridge.speaker.power_state.pwrStateResidencyTicks::UNDEFINED  99253118400                       # Cumulative time (in ticks) in various power states (Tick)
system.workload.inst.arm                            0                       # number of arm instructions executed (Count)
system.workload.inst.quiesce                        0                       # number of quiesce instructions executed (Count)

---------- End Simulation Statistics   ----------
