
---------- Begin Simulation Statistics ----------
simSeconds                                   0.043039                       # Number of seconds simulated (Second)
simTicks                                  43039031000                       # Number of ticks simulated (Tick)
finalTick                                250736257006600                       # Number of ticks from beginning of simulation (restored from checkpoints and never reset) (Tick)
simFreq                                  1000000000000                       # The number of ticks per simulated second ((Tick/Second))
hostSeconds                                   3980.71                       # Real time elapsed on the host (Second)
hostTickRate                                 10811889                       # The number of ticks simulated per host second (ticks/s) ((Tick/Second))
hostMemory                                   19831876                       # Number of bytes of host memory used (Byte)
simInsts                                     57502339                       # Number of instructions simulated (Count)
simOps                                       93802074                       # Number of ops (including micro ops) simulated (Count)
hostInstRate                                    14445                       # Simulator instruction rate (inst/s) ((Count/Second))
hostOpRate                                      23564                       # Simulator op (including micro ops) rate (op/s) ((Count/Second))
system.caches.delayHistogram::bucket_size           16                       # delay histogram for all message (Unspecified)
system.caches.delayHistogram::max_bucket          159                       # delay histogram for all message (Unspecified)
system.caches.delayHistogram::samples        35030840                       # delay histogram for all message (Unspecified)
system.caches.delayHistogram::mean           0.664328                       # delay histogram for all message (Unspecified)
system.caches.delayHistogram::stdev          2.298005                       # delay histogram for all message (Unspecified)
system.caches.delayHistogram             |    34985287     99.87%     99.87% |       44116      0.13%    100.00% |        1027      0.00%    100.00% |         360      0.00%    100.00% |          41      0.00%    100.00% |           9      0.00%    100.00% |           0      0.00%    100.00% |           0      0.00%    100.00% |           0      0.00%    100.00% |           0      0.00%    100.00% # delay histogram for all message (Unspecified)
system.caches.delayHistogram::total          35030840                       # delay histogram for all message (Unspecified)
system.caches.m_outstandReqHistSeqr::bucket_size            2                       (Unspecified)
system.caches.m_outstandReqHistSeqr::max_bucket           19                       (Unspecified)
system.caches.m_outstandReqHistSeqr::samples     34936805                       (Unspecified)
system.caches.m_outstandReqHistSeqr::mean     3.508377                       (Unspecified)
system.caches.m_outstandReqHistSeqr::gmean     2.516695                       (Unspecified)
system.caches.m_outstandReqHistSeqr::stdev     2.892687                       (Unspecified)
system.caches.m_outstandReqHistSeqr      |    12534716     35.88%     35.88% |     8346440     23.89%     59.77% |     5743300     16.44%     76.21% |     4915020     14.07%     90.28% |     1422200      4.07%     94.35% |     1619036      4.63%     98.98% |      193092      0.55%     99.53% |      102745      0.29%     99.83% |       60256      0.17%    100.00% |           0      0.00%    100.00% (Unspecified)
system.caches.m_outstandReqHistSeqr::total     34936805                       (Unspecified)
system.caches.m_latencyHistSeqr::bucket_size          512                       (Unspecified)
system.caches.m_latencyHistSeqr::max_bucket         5119                       (Unspecified)
system.caches.m_latencyHistSeqr::samples     34940003                       (Unspecified)
system.caches.m_latencyHistSeqr::mean       90.943698                       (Unspecified)
system.caches.m_latencyHistSeqr::gmean       2.493183                       (Unspecified)
system.caches.m_latencyHistSeqr::stdev     252.663855                       (Unspecified)
system.caches.m_latencyHistSeqr          |    32231415     92.25%     92.25% |     2424047      6.94%     99.19% |      191099      0.55%     99.73% |       13774      0.04%     99.77% |       42537      0.12%     99.89% |       33939      0.10%     99.99% |        2999      0.01%    100.00% |         179      0.00%    100.00% |          12      0.00%    100.00% |           2      0.00%    100.00% (Unspecified)
system.caches.m_latencyHistSeqr::total       34940003                       (Unspecified)
system.caches.m_hitLatencyHistSeqr::bucket_size          256                       (Unspecified)
system.caches.m_hitLatencyHistSeqr::max_bucket         2559                       (Unspecified)
system.caches.m_hitLatencyHistSeqr::samples     29892702                       (Unspecified)
system.caches.m_hitLatencyHistSeqr::mean     1.007264                       (Unspecified)
system.caches.m_hitLatencyHistSeqr::gmean     1.000163                       (Unspecified)
system.caches.m_hitLatencyHistSeqr::stdev     2.161034                       (Unspecified)
system.caches.m_hitLatencyHistSeqr       |    29892334    100.00%    100.00% |         216      0.00%    100.00% |         115      0.00%    100.00% |          22      0.00%    100.00% |           8      0.00%    100.00% |           1      0.00%    100.00% |           3      0.00%    100.00% |           1      0.00%    100.00% |           0      0.00%    100.00% |           2      0.00%    100.00% (Unspecified)
system.caches.m_hitLatencyHistSeqr::total     29892702                       (Unspecified)
system.caches.m_missLatencyHistSeqr::bucket_size          512                       (Unspecified)
system.caches.m_missLatencyHistSeqr::max_bucket         5119                       (Unspecified)
system.caches.m_missLatencyHistSeqr::samples      5047301                       (Unspecified)
system.caches.m_missLatencyHistSeqr::mean   623.593330                       (Unspecified)
system.caches.m_missLatencyHistSeqr::gmean   557.335769                       (Unspecified)
system.caches.m_missLatencyHistSeqr::stdev   332.082119                       (Unspecified)
system.caches.m_missLatencyHistSeqr      |     2338865     46.34%     46.34% |     2423910     48.02%     94.36% |      191090      3.79%     98.15% |       13770      0.27%     98.42% |       42535      0.84%     99.26% |       33939      0.67%     99.94% |        2999      0.06%    100.00% |         179      0.00%    100.00% |          12      0.00%    100.00% |           2      0.00%    100.00% (Unspecified)
system.caches.m_missLatencyHistSeqr::total      5047301                       (Unspecified)
system.caches.delayVCHist.vnet_0::bucket_size           16                       # delay histogram for vnet_0 (Unspecified)
system.caches.delayVCHist.vnet_0::max_bucket          159                       # delay histogram for vnet_0 (Unspecified)
system.caches.delayVCHist.vnet_0::samples     14917266                       # delay histogram for vnet_0 (Unspecified)
system.caches.delayVCHist.vnet_0::mean       1.514851                       # delay histogram for vnet_0 (Unspecified)
system.caches.delayVCHist.vnet_0::stdev      3.306143                       # delay histogram for vnet_0 (Unspecified)
system.caches.delayVCHist.vnet_0         |    14871918     99.70%     99.70% |       43911      0.29%     99.99% |        1027      0.01%    100.00% |         360      0.00%    100.00% |          41      0.00%    100.00% |           9      0.00%    100.00% |           0      0.00%    100.00% |           0      0.00%    100.00% |           0      0.00%    100.00% |           0      0.00%    100.00% # delay histogram for vnet_0 (Unspecified)
system.caches.delayVCHist.vnet_0::total      14917266                       # delay histogram for vnet_0 (Unspecified)
system.caches.delayVCHist.vnet_1::bucket_size            4                       # delay histogram for vnet_1 (Unspecified)
system.caches.delayVCHist.vnet_1::max_bucket           39                       # delay histogram for vnet_1 (Unspecified)
system.caches.delayVCHist.vnet_1::samples     20004245                       # delay histogram for vnet_1 (Unspecified)
system.caches.delayVCHist.vnet_1::mean       0.033718                       # delay histogram for vnet_1 (Unspecified)
system.caches.delayVCHist.vnet_1::stdev      0.396388                       # delay histogram for vnet_1 (Unspecified)
system.caches.delayVCHist.vnet_1         |    19898301     99.47%     99.47% |      101045      0.51%     99.98% |        3548      0.02%     99.99% |        1146      0.01%    100.00% |         184      0.00%    100.00% |          11      0.00%    100.00% |           5      0.00%    100.00% |           5      0.00%    100.00% |           0      0.00%    100.00% |           0      0.00%    100.00% # delay histogram for vnet_1 (Unspecified)
system.caches.delayVCHist.vnet_1::total      20004245                       # delay histogram for vnet_1 (Unspecified)
system.caches.delayVCHist.vnet_2::bucket_size            1                       # delay histogram for vnet_2 (Unspecified)
system.caches.delayVCHist.vnet_2::max_bucket            9                       # delay histogram for vnet_2 (Unspecified)
system.caches.delayVCHist.vnet_2::samples       109329                       # delay histogram for vnet_2 (Unspecified)
system.caches.delayVCHist.vnet_2::mean       0.000256                       # delay histogram for vnet_2 (Unspecified)
system.caches.delayVCHist.vnet_2::stdev      0.022631                       # delay histogram for vnet_2 (Unspecified)
system.caches.delayVCHist.vnet_2         |      109315     99.99%     99.99% |           0      0.00%     99.99% |          14      0.01%    100.00% |           0      0.00%    100.00% |           0      0.00%    100.00% |           0      0.00%    100.00% |           0      0.00%    100.00% |           0      0.00%    100.00% |           0      0.00%    100.00% |           0      0.00%    100.00% # delay histogram for vnet_2 (Unspecified)
system.caches.delayVCHist.vnet_2::total        109329                       # delay histogram for vnet_2 (Unspecified)
system.caches.L1Cache_Controller.Load    |      650018     11.98%     11.98% |      686059     12.64%     24.62% |      706132     13.01%     37.63% |      717330     13.22%     50.84% |      711045     13.10%     63.94% |      658280     12.13%     76.07% |      638433     11.76%     87.83% |      660318     12.17%    100.00% (Unspecified)
system.caches.L1Cache_Controller.Load::total      5427615                       (Unspecified)
system.caches.L1Cache_Controller.Ifetch  |     1143467     12.51%     12.51% |     1270439     13.89%     26.40% |     1158511     12.67%     39.07% |     1097275     12.00%     51.07% |     1067487     11.68%     62.75% |     1145445     12.53%     75.28% |     1195613     13.08%     88.35% |     1064912     11.65%    100.00% (Unspecified)
system.caches.L1Cache_Controller.Ifetch::total      9143149                       (Unspecified)
system.caches.L1Cache_Controller.Store   |     2548702     12.51%     12.51% |     2538979     12.46%     24.98% |     2549881     12.52%     37.50% |     2535768     12.45%     49.94% |     2568001     12.61%     62.55% |     2531032     12.43%     74.98% |     2540668     12.47%     87.45% |     2556222     12.55%    100.00% (Unspecified)
system.caches.L1Cache_Controller.Store::total     20369253                       (Unspecified)
system.caches.L1Cache_Controller.Inv     |       15218     14.10%     14.10% |       13730     12.73%     26.83% |       13658     12.66%     39.49% |       14228     13.19%     52.68% |       11985     11.11%     63.78% |       12480     11.57%     75.35% |       12229     11.33%     86.69% |       14365     13.31%    100.00% (Unspecified)
system.caches.L1Cache_Controller.Inv::total       107893                       (Unspecified)
system.caches.L1Cache_Controller.L1_Replacement |      626787     12.52%     12.52% |      619419     12.37%     24.90% |      626005     12.51%     37.40% |      624274     12.47%     49.87% |      633804     12.66%     62.54% |      621825     12.42%     74.96% |      622498     12.44%     87.40% |      630881     12.60%    100.00% (Unspecified)
system.caches.L1Cache_Controller.L1_Replacement::total      5005493                       (Unspecified)
system.caches.L1Cache_Controller.Fwd_GETX |           0      0.00%      0.00% |           8     66.67%     66.67% |           2     16.67%     83.33% |           2     16.67%    100.00% |           0      0.00%    100.00% |           0      0.00%    100.00% |           0      0.00%    100.00% |           0      0.00%    100.00% (Unspecified)
system.caches.L1Cache_Controller.Fwd_GETX::total           12                       (Unspecified)
system.caches.L1Cache_Controller.Fwd_GETS |        1038     72.89%     72.89% |         157     11.03%     83.92% |          78      5.48%     89.40% |          26      1.83%     91.22% |          27      1.90%     93.12% |          62      4.35%     97.47% |          19      1.33%     98.81% |          17      1.19%    100.00% (Unspecified)
system.caches.L1Cache_Controller.Fwd_GETS::total         1424                       (Unspecified)
system.caches.L1Cache_Controller.Data    |          42    100.00%    100.00% |           0      0.00%    100.00% |           0      0.00%    100.00% |           0      0.00%    100.00% |           0      0.00%    100.00% |           0      0.00%    100.00% |           0      0.00%    100.00% |           0      0.00%    100.00% (Unspecified)
system.caches.L1Cache_Controller.Data::total           42                       (Unspecified)
system.caches.L1Cache_Controller.Data_Exclusive |      300662     12.51%     12.51% |      295307     12.29%     24.80% |      300349     12.50%     37.30% |      300431     12.50%     49.80% |      305811     12.72%     62.52% |      298433     12.42%     74.94% |      297933     12.40%     87.34% |      304326     12.66%    100.00% (Unspecified)
system.caches.L1Cache_Controller.Data_Exclusive::total      2403252                       (Unspecified)
system.caches.L1Cache_Controller.DataS_fromL1 |          72      5.06%      5.06% |         738     51.83%     56.88% |         246     17.28%     74.16% |         169     11.87%     86.03% |          53      3.72%     89.75% |         102      7.16%     96.91% |          28      1.97%     98.88% |          16      1.12%    100.00% (Unspecified)
system.caches.L1Cache_Controller.DataS_fromL1::total         1424                       (Unspecified)
system.caches.L1Cache_Controller.Data_all_Acks |      331106     12.53%     12.53% |      328739     12.44%     24.97% |      330678     12.51%     37.49% |      328998     12.45%     49.94% |      333167     12.61%     62.55% |      328450     12.43%     74.98% |      329623     12.47%     87.45% |      331576     12.55%    100.00% (Unspecified)
system.caches.L1Cache_Controller.Data_all_Acks::total      2642337                       (Unspecified)
system.caches.L1Cache_Controller.Ack     |        1067    100.00%    100.00% |           0      0.00%    100.00% |           0      0.00%    100.00% |           0      0.00%    100.00% |           0      0.00%    100.00% |           0      0.00%    100.00% |           0      0.00%    100.00% |           0      0.00%    100.00% (Unspecified)
system.caches.L1Cache_Controller.Ack::total         1067                       (Unspecified)
system.caches.L1Cache_Controller.Ack_all |         288    100.00%    100.00% |           0      0.00%    100.00% |           0      0.00%    100.00% |           0      0.00%    100.00% |           0      0.00%    100.00% |           0      0.00%    100.00% |           0      0.00%    100.00% |           0      0.00%    100.00% (Unspecified)
system.caches.L1Cache_Controller.Ack_all::total          288                       (Unspecified)
system.caches.L1Cache_Controller.WB_Ack  |      615824     12.54%     12.54% |      607530     12.37%     24.91% |      613198     12.49%     37.40% |      611433     12.45%     49.84% |      623333     12.69%     62.54% |      610387     12.43%     74.97% |      611031     12.44%     87.41% |      618465     12.59%    100.00% (Unspecified)
system.caches.L1Cache_Controller.WB_Ack::total      4911201                       (Unspecified)
system.caches.L1Cache_Controller.NP.Load |      303089     12.49%     12.49% |      298272     12.29%     24.78% |      303401     12.50%     37.28% |      303511     12.50%     49.78% |      308892     12.73%     62.51% |      301581     12.42%     74.93% |      301038     12.40%     87.33% |      307445     12.67%    100.00% (Unspecified)
system.caches.L1Cache_Controller.NP.Load::total      2427229                       (Unspecified)
system.caches.L1Cache_Controller.NP.Ifetch |        4807     19.37%     19.37% |        2770     11.16%     30.54% |        2873     11.58%     42.12% |        2825     11.39%     53.50% |        2891     11.65%     65.16% |        2877     11.60%     76.75% |        2876     11.59%     88.34% |        2892     11.66%    100.00% (Unspecified)
system.caches.L1Cache_Controller.NP.Ifetch::total        24811                       (Unspecified)
system.caches.L1Cache_Controller.NP.Store |      319026     12.49%     12.49% |      318408     12.47%     24.96% |      319761     12.52%     37.48% |      317994     12.45%     49.93% |      322052     12.61%     62.54% |      317401     12.43%     74.97% |      318618     12.48%     87.45% |      320575     12.55%    100.00% (Unspecified)
system.caches.L1Cache_Controller.NP.Store::total      2553835                       (Unspecified)
system.caches.L1Cache_Controller.NP.Inv  |        5007     14.86%     14.86% |        4063     12.06%     26.93% |        4088     12.14%     39.06% |        4044     12.00%     51.07% |        4088     12.14%     63.20% |        4188     12.43%     75.63% |        4110     12.20%     87.83% |        4098     12.17%    100.00% (Unspecified)
system.caches.L1Cache_Controller.NP.Inv::total        33686                       (Unspecified)
system.caches.L1Cache_Controller.I.Load  |           0      0.00%      0.00% |         246     23.30%     23.30% |         234     22.16%     45.45% |         221     20.93%     66.38% |         211     19.98%     86.36% |         120     11.36%     97.73% |          19      1.80%     99.53% |           5      0.47%    100.00% (Unspecified)
system.caches.L1Cache_Controller.I.Load::total         1056                       (Unspecified)
system.caches.L1Cache_Controller.I.Ifetch |        4961     12.36%     12.36% |        5090     12.68%     25.04% |        5007     12.47%     37.52% |        5049     12.58%     50.09% |        4985     12.42%     62.51% |        5008     12.48%     74.99% |        5035     12.54%     87.54% |        5003     12.46%    100.00% (Unspecified)
system.caches.L1Cache_Controller.I.Ifetch::total        40138                       (Unspecified)
system.caches.L1Cache_Controller.I.L1_Replacement |        5253      9.30%      9.30% |        7336     12.99%     22.29% |        8230     14.57%     36.85% |        8317     14.72%     51.58% |        5904     10.45%     62.03% |        6759     11.96%     73.99% |        6869     12.16%     86.15% |        7822     13.85%    100.00% (Unspecified)
system.caches.L1Cache_Controller.I.L1_Replacement::total        56490                       (Unspecified)
system.caches.L1Cache_Controller.S.Load  |       10531      3.29%      3.29% |       65998     20.61%     23.90% |       66675     20.82%     44.72% |       65186     20.36%     65.08% |       63042     19.69%     84.77% |       25109      7.84%     92.61% |       12017      3.75%     96.37% |       11637      3.63%    100.00% (Unspecified)
system.caches.L1Cache_Controller.S.Load::total       320195                       (Unspecified)
system.caches.L1Cache_Controller.S.Ifetch |     1133699     12.49%     12.49% |     1262579     13.91%     26.40% |     1150631     12.67%     39.07% |     1089401     12.00%     51.07% |     1059611     11.67%     62.74% |     1137560     12.53%     75.27% |     1187702     13.08%     88.36% |     1057017     11.64%    100.00% (Unspecified)
system.caches.L1Cache_Controller.S.Ifetch::total      9078200                       (Unspecified)
system.caches.L1Cache_Controller.S.Store |         246    100.00%    100.00% |           0      0.00%    100.00% |           0      0.00%    100.00% |           0      0.00%    100.00% |           0      0.00%    100.00% |           0      0.00%    100.00% |           0      0.00%    100.00% |           0      0.00%    100.00% (Unspecified)
system.caches.L1Cache_Controller.S.Store::total          246                       (Unspecified)
system.caches.L1Cache_Controller.S.Inv   |        7139     13.67%     13.67% |        6534     12.51%     26.17% |        6503     12.45%     38.62% |        6522     12.48%     51.11% |        6461     12.37%     63.47% |        6397     12.25%     75.72% |        6347     12.15%     87.87% |        6338     12.13%    100.00% (Unspecified)
system.caches.L1Cache_Controller.S.Inv::total        52241                       (Unspecified)
system.caches.L1Cache_Controller.S.L1_Replacement |        5710     15.11%     15.11% |        4553     12.04%     27.15% |        4577     12.11%     39.26% |        4524     11.97%     51.22% |        4567     12.08%     63.31% |        4679     12.38%     75.68% |        4598     12.16%     87.85% |        4594     12.15%    100.00% (Unspecified)
system.caches.L1Cache_Controller.S.L1_Replacement::total        37802                       (Unspecified)
system.caches.L1Cache_Controller.E.Load  |      317926     12.27%     12.27% |      310795     12.00%     24.27% |      325653     12.57%     36.84% |      338279     13.06%     49.89% |      329098     12.70%     62.59% |      321776     12.42%     75.01% |      315698     12.18%     87.20% |      331675     12.80%    100.00% (Unspecified)
system.caches.L1Cache_Controller.E.Load::total      2590900                       (Unspecified)
system.caches.L1Cache_Controller.E.Store |         686     18.06%     18.06% |         443     11.66%     29.72% |         451     11.87%     41.59% |         448     11.79%     53.38% |         443     11.66%     65.04% |         444     11.69%     76.73% |         442     11.63%     88.37% |         442     11.63%    100.00% (Unspecified)
system.caches.L1Cache_Controller.E.Store::total         3799                       (Unspecified)
system.caches.L1Cache_Controller.E.Inv   |        1547     17.53%     17.53% |         598      6.77%     24.30% |         782      8.86%     33.16% |        2342     26.53%     59.69% |         781      8.85%     68.54% |         840      9.52%     78.06% |        1494     16.93%     94.98% |         443      5.02%    100.00% (Unspecified)
system.caches.L1Cache_Controller.E.Inv::total         8827                       (Unspecified)
system.caches.L1Cache_Controller.E.L1_Replacement |      295789     12.45%     12.45% |      292224     12.30%     24.75% |      297048     12.50%     37.26% |      296127     12.47%     49.72% |      303009     12.75%     62.48% |      295386     12.43%     74.91% |      294272     12.39%     87.30% |      301755     12.70%    100.00% (Unspecified)
system.caches.L1Cache_Controller.E.L1_Replacement::total      2375610                       (Unspecified)
system.caches.L1Cache_Controller.E.Fwd_GETX |           0      0.00%      0.00% |           8     66.67%     66.67% |           2     16.67%     83.33% |           2     16.67%    100.00% |           0      0.00%    100.00% |           0      0.00%    100.00% |           0      0.00%    100.00% |           0      0.00%    100.00% (Unspecified)
system.caches.L1Cache_Controller.E.Fwd_GETX::total           12                       (Unspecified)
system.caches.L1Cache_Controller.E.Fwd_GETS |         643     62.49%     62.49% |         157     15.26%     77.75% |          78      7.58%     85.33% |          26      2.53%     87.85% |          27      2.62%     90.48% |          62      6.03%     96.50% |          19      1.85%     98.35% |          17      1.65%    100.00% (Unspecified)
system.caches.L1Cache_Controller.E.Fwd_GETS::total         1029                       (Unspecified)
system.caches.L1Cache_Controller.M.Load  |       18472     20.94%     20.94% |       10748     12.18%     33.12% |       10169     11.52%     44.64% |       10133     11.48%     56.13% |        9802     11.11%     67.23% |        9694     10.99%     78.22% |        9661     10.95%     89.17% |        9556     10.83%    100.00% (Unspecified)
system.caches.L1Cache_Controller.M.Load::total        88235                       (Unspecified)
system.caches.L1Cache_Controller.M.Store |     2228744     12.51%     12.51% |     2220128     12.46%     24.98% |     2229669     12.52%     37.50% |     2217326     12.45%     49.94% |     2245506     12.61%     62.55% |     2213187     12.43%     74.98% |     2221608     12.47%     87.45% |     2235205     12.55%    100.00% (Unspecified)
system.caches.L1Cache_Controller.M.Store::total     17811373                       (Unspecified)
system.caches.L1Cache_Controller.M.Inv   |        1525     11.85%     11.85% |        2496     19.40%     31.25% |        2223     17.28%     48.53% |        1267      9.85%     58.38% |         588      4.57%     62.95% |        1012      7.87%     70.81% |         272      2.11%     72.93% |        3483     27.07%    100.00% (Unspecified)
system.caches.L1Cache_Controller.M.Inv::total        12866                       (Unspecified)
system.caches.L1Cache_Controller.M.L1_Replacement |      320035     12.62%     12.62% |      315306     12.44%     25.06% |      316150     12.47%     37.53% |      315306     12.44%     49.96% |      320324     12.63%     62.59% |      315001     12.42%     75.02% |      316759     12.49%     87.51% |      316710     12.49%    100.00% (Unspecified)
system.caches.L1Cache_Controller.M.L1_Replacement::total      2535591                       (Unspecified)
system.caches.L1Cache_Controller.M.Fwd_GETS |         395    100.00%    100.00% |           0      0.00%    100.00% |           0      0.00%    100.00% |           0      0.00%    100.00% |           0      0.00%    100.00% |           0      0.00%    100.00% |           0      0.00%    100.00% |           0      0.00%    100.00% (Unspecified)
system.caches.L1Cache_Controller.M.Fwd_GETS::total          395                       (Unspecified)
system.caches.L1Cache_Controller.IS.Inv  |           0      0.00%      0.00% |          39     14.61%     14.61% |          62     23.22%     37.83% |          53     19.85%     57.68% |          67     25.09%     82.77% |          38     14.23%     97.00% |           6      2.25%     99.25% |           2      0.75%    100.00% (Unspecified)
system.caches.L1Cache_Controller.IS.Inv::total          267                       (Unspecified)
system.caches.L1Cache_Controller.IS.Data_Exclusive |      300662     12.51%     12.51% |      295307     12.29%     24.80% |      300349     12.50%     37.30% |      300431     12.50%     49.80% |      305811     12.72%     62.52% |      298433     12.42%     74.94% |      297933     12.40%     87.34% |      304326     12.66%    100.00% (Unspecified)
system.caches.L1Cache_Controller.IS.Data_Exclusive::total      2403252                       (Unspecified)
system.caches.L1Cache_Controller.IS.DataS_fromL1 |          72      5.06%      5.06% |         738     51.83%     56.88% |         246     17.28%     74.16% |         169     11.87%     86.03% |          53      3.72%     89.75% |         102      7.16%     96.91% |          28      1.97%     98.88% |          16      1.12%    100.00% (Unspecified)
system.caches.L1Cache_Controller.IS.DataS_fromL1::total         1424                       (Unspecified)
system.caches.L1Cache_Controller.IS.Data_all_Acks |       12123     13.73%     13.73% |       10293     11.66%     25.39% |       10856     12.30%     37.69% |       10952     12.41%     50.09% |       11048     12.51%     62.61% |       11012     12.47%     75.08% |       11000     12.46%     87.54% |       11000     12.46%    100.00% (Unspecified)
system.caches.L1Cache_Controller.IS.Data_all_Acks::total        88284                       (Unspecified)
system.caches.L1Cache_Controller.IM.Data |          42    100.00%    100.00% |           0      0.00%    100.00% |           0      0.00%    100.00% |           0      0.00%    100.00% |           0      0.00%    100.00% |           0      0.00%    100.00% |           0      0.00%    100.00% |           0      0.00%    100.00% (Unspecified)
system.caches.L1Cache_Controller.IM.Data::total           42                       (Unspecified)
system.caches.L1Cache_Controller.IM.Data_all_Acks |      318983     12.49%     12.49% |      318407     12.47%     24.96% |      319760     12.52%     37.48% |      317993     12.45%     49.93% |      322052     12.61%     62.54% |      317400     12.43%     74.97% |      318617     12.48%     87.45% |      320574     12.55%    100.00% (Unspecified)
system.caches.L1Cache_Controller.IM.Data_all_Acks::total      2553786                       (Unspecified)
system.caches.L1Cache_Controller.SM.Ack  |        1067    100.00%    100.00% |           0      0.00%    100.00% |           0      0.00%    100.00% |           0      0.00%    100.00% |           0      0.00%    100.00% |           0      0.00%    100.00% |           0      0.00%    100.00% |           0      0.00%    100.00% (Unspecified)
system.caches.L1Cache_Controller.SM.Ack::total         1067                       (Unspecified)
system.caches.L1Cache_Controller.SM.Ack_all |         288    100.00%    100.00% |           0      0.00%    100.00% |           0      0.00%    100.00% |           0      0.00%    100.00% |           0      0.00%    100.00% |           0      0.00%    100.00% |           0      0.00%    100.00% |           0      0.00%    100.00% (Unspecified)
system.caches.L1Cache_Controller.SM.Ack_all::total          288                       (Unspecified)
system.caches.L1Cache_Controller.IS_I.Data_all_Acks |           0      0.00%      0.00% |          39     14.61%     14.61% |          62     23.22%     37.83% |          53     19.85%     57.68% |          67     25.09%     82.77% |          38     14.23%     97.00% |           6      2.25%     99.25% |           2      0.75%    100.00% (Unspecified)
system.caches.L1Cache_Controller.IS_I.Data_all_Acks::total          267                       (Unspecified)
system.caches.L1Cache_Controller.M_I.Inv |           0      0.00%      0.00% |           0      0.00%      0.00% |           0      0.00%      0.00% |           0      0.00%      0.00% |           0      0.00%      0.00% |           5     83.33%     83.33% |           0      0.00%     83.33% |           1     16.67%    100.00% (Unspecified)
system.caches.L1Cache_Controller.M_I.Inv::total            6                       (Unspecified)
system.caches.L1Cache_Controller.M_I.WB_Ack |      615824     12.54%     12.54% |      607530     12.37%     24.91% |      613198     12.49%     37.40% |      611433     12.45%     49.84% |      623333     12.69%     62.54% |      610382     12.43%     74.97% |      611031     12.44%     87.41% |      618464     12.59%    100.00% (Unspecified)
system.caches.L1Cache_Controller.M_I.WB_Ack::total      4911195                       (Unspecified)
system.caches.L1Cache_Controller.SINK_WB_ACK.WB_Ack |           0      0.00%      0.00% |           0      0.00%      0.00% |           0      0.00%      0.00% |           0      0.00%      0.00% |           0      0.00%      0.00% |           5     83.33%     83.33% |           0      0.00%     83.33% |           1     16.67%    100.00% (Unspecified)
system.caches.L1Cache_Controller.SINK_WB_ACK.WB_Ack::total            6                       (Unspecified)
system.caches.Directory_Controller.Fetch |       11874      0.24%      0.24% |     4956346     99.76%    100.00% (Unspecified)
system.caches.Directory_Controller.Fetch::total      4968220                       (Unspecified)
system.caches.Directory_Controller.Data  |         867      0.03%      0.03% |     2586483     99.97%    100.00% (Unspecified)
system.caches.Directory_Controller.Data::total      2587350                       (Unspecified)
system.caches.Directory_Controller.Memory_Data |       11874      0.24%      0.24% |     4956332     99.76%    100.00% (Unspecified)
system.caches.Directory_Controller.Memory_Data::total      4968206                       (Unspecified)
system.caches.Directory_Controller.Memory_Ack |         867      0.03%      0.03% |     2586483     99.97%    100.00% (Unspecified)
system.caches.Directory_Controller.Memory_Ack::total      2587350                       (Unspecified)
system.caches.Directory_Controller.CleanReplacement |       10892      0.46%      0.46% |     2369978     99.54%    100.00% (Unspecified)
system.caches.Directory_Controller.CleanReplacement::total      2380870                       (Unspecified)
system.caches.Directory_Controller.I.Fetch |       11874      0.24%      0.24% |     4956346     99.76%    100.00% (Unspecified)
system.caches.Directory_Controller.I.Fetch::total      4968220                       (Unspecified)
system.caches.Directory_Controller.M.Data |         867      0.03%      0.03% |     2586483     99.97%    100.00% (Unspecified)
system.caches.Directory_Controller.M.Data::total      2587350                       (Unspecified)
system.caches.Directory_Controller.M.CleanReplacement |       10892      0.46%      0.46% |     2369978     99.54%    100.00% (Unspecified)
system.caches.Directory_Controller.M.CleanReplacement::total      2380870                       (Unspecified)
system.caches.Directory_Controller.IM.Memory_Data |       11874      0.24%      0.24% |     4956332     99.76%    100.00% (Unspecified)
system.caches.Directory_Controller.IM.Memory_Data::total      4968206                       (Unspecified)
system.caches.Directory_Controller.MI.Memory_Ack |         867      0.03%      0.03% |     2586483     99.97%    100.00% (Unspecified)
system.caches.Directory_Controller.MI.Memory_Ack::total      2587350                       (Unspecified)
system.caches.L2Cache_Controller.L1_GET_INSTR |        8459     13.01%     13.01% |        8445     12.99%     26.00% |        7928     12.19%     38.19% |        5928      9.12%     47.31% |        8561     13.17%     60.48% |        8864     13.63%     74.11% |        8246     12.68%     86.80% |        8584     13.20%    100.00% (Unspecified)
system.caches.L2Cache_Controller.L1_GET_INSTR::total        65015                       (Unspecified)
system.caches.L2Cache_Controller.L1_GETS |      306596     12.62%     12.62% |      304767     12.54%     25.16% |      303999     12.51%     37.67% |      302718     12.46%     50.12% |      302439     12.45%     62.57% |      301735     12.42%     74.98% |      304192     12.52%     87.50% |      303722     12.50%    100.00% (Unspecified)
system.caches.L2Cache_Controller.L1_GETS::total      2430168                       (Unspecified)
system.caches.L2Cache_Controller.L1_GETX |      319595     12.51%     12.51% |      319458     12.51%     25.02% |      318189     12.46%     37.48% |      318849     12.49%     49.97% |      318751     12.48%     62.45% |      320296     12.54%     74.99% |      319207     12.50%     87.49% |      319492     12.51%    100.00% (Unspecified)
system.caches.L2Cache_Controller.L1_GETX::total      2553837                       (Unspecified)
system.caches.L2Cache_Controller.L1_UPGRADE |           0      0.00%      0.00% |          27      8.16%      8.16% |           0      0.00%      8.16% |           0      0.00%      8.16% |           0      0.00%      8.16% |           0      0.00%      8.16% |         304     91.84%    100.00% |           0      0.00%    100.00% (Unspecified)
system.caches.L2Cache_Controller.L1_UPGRADE::total          331                       (Unspecified)
system.caches.L2Cache_Controller.L1_PUTX |      614179     12.51%     12.51% |      614616     12.51%     25.02% |      613097     12.48%     37.50% |      613459     12.49%     49.99% |      613350     12.49%     62.48% |      614575     12.51%     75.00% |      613799     12.50%     87.50% |      614120     12.50%    100.00% (Unspecified)
system.caches.L2Cache_Controller.L1_PUTX::total      4911195                       (Unspecified)
system.caches.L2Cache_Controller.L1_PUTX_old |           4     33.33%     33.33% |           2     16.67%     50.00% |           0      0.00%     50.00% |           0      0.00%     50.00% |           2     16.67%     66.67% |           0      0.00%     66.67% |           2     16.67%     83.33% |           2     16.67%    100.00% (Unspecified)
system.caches.L2Cache_Controller.L1_PUTX_old::total           12                       (Unspecified)
system.caches.L2Cache_Controller.L2_Replacement |      322112     12.51%     12.51% |      321742     12.50%     25.01% |      320813     12.46%     37.47% |      321575     12.49%     49.96% |      321123     12.47%     62.43% |      322832     12.54%     74.97% |      321811     12.50%     87.47% |      322474     12.53%    100.00% (Unspecified)
system.caches.L2Cache_Controller.L2_Replacement::total      2574482                       (Unspecified)
system.caches.L2Cache_Controller.L2_Replacement_clean |      299779     12.52%     12.52% |      300372     12.55%     25.07% |      298986     12.49%     37.56% |      298535     12.47%     50.03% |      299247     12.50%     62.53% |      298939     12.49%     75.02% |      298840     12.48%     87.51% |      299040     12.49%    100.00% (Unspecified)
system.caches.L2Cache_Controller.L2_Replacement_clean::total      2393738                       (Unspecified)
system.caches.L2Cache_Controller.Mem_Data |      621886     12.52%     12.52% |      622112     12.52%     25.04% |      619798     12.48%     37.51% |      620109     12.48%     50.00% |      620369     12.49%     62.48% |      621770     12.51%     75.00% |      620649     12.49%     87.49% |      621513     12.51%    100.00% (Unspecified)
system.caches.L2Cache_Controller.Mem_Data::total      4968206                       (Unspecified)
system.caches.L2Cache_Controller.Mem_Ack |      621891     12.52%     12.52% |      622114     12.52%     25.04% |      619799     12.48%     37.51% |      620110     12.48%     50.00% |      620370     12.49%     62.48% |      621771     12.51%     75.00% |      620651     12.49%     87.49% |      621514     12.51%    100.00% (Unspecified)
system.caches.L2Cache_Controller.Mem_Ack::total      4968220                       (Unspecified)
system.caches.L2Cache_Controller.WB_Data |        1831     13.80%     13.80% |        1789     13.48%     27.29% |        1288      9.71%     36.99% |        1564     11.79%     48.78% |        1562     11.77%     60.56% |        1778     13.40%     73.96% |        1844     13.90%     87.86% |        1611     12.14%    100.00% (Unspecified)
system.caches.L2Cache_Controller.WB_Data::total        13267                       (Unspecified)
system.caches.L2Cache_Controller.WB_Data_clean |         243     23.62%     23.62% |         172     16.72%     40.33% |         185     17.98%     58.31% |         100      9.72%     68.03% |          68      6.61%     74.64% |          55      5.34%     79.98% |         117     11.37%     91.35% |          89      8.65%    100.00% (Unspecified)
system.caches.L2Cache_Controller.WB_Data_clean::total         1029                       (Unspecified)
system.caches.L2Cache_Controller.Ack     |       11205     15.41%     15.41% |       10021     13.79%     29.20% |        9730     13.39%     42.59% |        6878      9.46%     52.05% |        8795     12.10%     64.15% |        8504     11.70%     75.85% |        8067     11.10%     86.95% |        9489     13.05%    100.00% (Unspecified)
system.caches.L2Cache_Controller.Ack::total        72689                       (Unspecified)
system.caches.L2Cache_Controller.Ack_all |        3084     14.53%     14.53% |        2890     13.62%     28.15% |        2525     11.90%     40.05% |        2213     10.43%     50.47% |        2602     12.26%     62.73% |        2566     12.09%     74.82% |        2411     11.36%     86.18% |        2932     13.82%    100.00% (Unspecified)
system.caches.L2Cache_Controller.Ack_all::total        21223                       (Unspecified)
system.caches.L2Cache_Controller.Unblock |         331     23.24%     23.24% |         216     15.17%     38.41% |         185     12.99%     51.40% |         100      7.02%     58.43% |          68      4.78%     63.20% |          55      3.86%     67.06% |         380     26.69%     93.75% |          89      6.25%    100.00% (Unspecified)
system.caches.L2Cache_Controller.Unblock::total         1424                       (Unspecified)
system.caches.L2Cache_Controller.Exclusive_Unblock |      620375     12.51%     12.51% |      620605     12.52%     25.03% |      618311     12.47%     37.51% |      619022     12.49%     49.99% |      618971     12.49%     62.48% |      620422     12.52%     74.99% |      619730     12.50%     87.50% |      619890     12.50%    100.00% (Unspecified)
system.caches.L2Cache_Controller.Exclusive_Unblock::total      4957326                       (Unspecified)
system.caches.L2Cache_Controller.NP.L1_GET_INSTR |        1194     12.83%     12.83% |        1286     13.82%     26.65% |        1187     12.76%     39.40% |         871      9.36%     48.76% |        1196     12.85%     61.62% |        1171     12.58%     74.20% |        1120     12.04%     86.23% |        1281     13.77%    100.00% (Unspecified)
system.caches.L2Cache_Controller.NP.L1_GET_INSTR::total         9306                       (Unspecified)
system.caches.L2Cache_Controller.NP.L1_GETS |      301130     12.52%     12.52% |      301374     12.53%     25.05% |      300425     12.49%     37.54% |      300393     12.49%     50.03% |      300423     12.49%     62.52% |      300314     12.49%     75.01% |      300363     12.49%     87.50% |      300750     12.50%    100.00% (Unspecified)
system.caches.L2Cache_Controller.NP.L1_GETS::total      2405172                       (Unspecified)
system.caches.L2Cache_Controller.NP.L1_GETX |      319567     12.51%     12.51% |      319454     12.51%     25.02% |      318187     12.46%     37.48% |      318846     12.49%     49.97% |      318751     12.48%     62.45% |      320286     12.54%     74.99% |      319168     12.50%     87.49% |      319483     12.51%    100.00% (Unspecified)
system.caches.L2Cache_Controller.NP.L1_GETX::total      2553742                       (Unspecified)
system.caches.L2Cache_Controller.NP.L1_PUTX_old |           2     33.33%     33.33% |           1     16.67%     50.00% |           0      0.00%     50.00% |           0      0.00%     50.00% |           1     16.67%     66.67% |           0      0.00%     66.67% |           1     16.67%     83.33% |           1     16.67%    100.00% (Unspecified)
system.caches.L2Cache_Controller.NP.L1_PUTX_old::total            6                       (Unspecified)
system.caches.L2Cache_Controller.SS.L1_GET_INSTR |        4169     12.75%     12.75% |        3791     11.59%     24.34% |        4027     12.31%     36.66% |        2822      8.63%     45.29% |        4187     12.80%     58.09% |        4435     13.56%     71.65% |        4472     13.68%     85.33% |        4797     14.67%    100.00% (Unspecified)
system.caches.L2Cache_Controller.SS.L1_GET_INSTR::total        32700                       (Unspecified)
system.caches.L2Cache_Controller.SS.L1_GETS |        3940     25.09%     25.09% |        2050     13.06%     38.15% |        2381     15.16%     53.31% |        1504      9.58%     62.89% |        1353      8.62%     71.51% |         685      4.36%     75.87% |        1696     10.80%     86.67% |        2093     13.33%    100.00% (Unspecified)
system.caches.L2Cache_Controller.SS.L1_GETS::total        15702                       (Unspecified)
system.caches.L2Cache_Controller.SS.L1_GETX |          21     50.00%     50.00% |           0      0.00%     50.00% |           0      0.00%     50.00% |           0      0.00%     50.00% |           0      0.00%     50.00% |           0      0.00%     50.00% |          21     50.00%    100.00% |           0      0.00%    100.00% (Unspecified)
system.caches.L2Cache_Controller.SS.L1_GETX::total           42                       (Unspecified)
system.caches.L2Cache_Controller.SS.L1_UPGRADE |           0      0.00%      0.00% |          27     10.98%     10.98% |           0      0.00%     10.98% |           0      0.00%     10.98% |           0      0.00%     10.98% |           0      0.00%     10.98% |         219     89.02%    100.00% |           0      0.00%    100.00% (Unspecified)
system.caches.L2Cache_Controller.SS.L1_UPGRADE::total          246                       (Unspecified)
system.caches.L2Cache_Controller.SS.L2_Replacement |          86     50.00%     50.00% |          43     25.00%     75.00% |           0      0.00%     75.00% |           0      0.00%     75.00% |           0      0.00%     75.00% |           0      0.00%     75.00% |          43     25.00%    100.00% |           0      0.00%    100.00% (Unspecified)
system.caches.L2Cache_Controller.SS.L2_Replacement::total          172                       (Unspecified)
system.caches.L2Cache_Controller.SS.L2_Replacement_clean |        1777     14.54%     14.54% |        1693     13.85%     28.39% |        1675     13.70%     42.09% |        1197      9.79%     51.88% |        1477     12.08%     63.96% |        1418     11.60%     75.56% |        1270     10.39%     85.95% |        1717     14.05%    100.00% (Unspecified)
system.caches.L2Cache_Controller.SS.L2_Replacement_clean::total        12224                       (Unspecified)
system.caches.L2Cache_Controller.M.L1_GET_INSTR |           6      9.52%      9.52% |           7     11.11%     20.63% |           8     12.70%     33.33% |           7     11.11%     44.44% |          11     17.46%     61.90% |          12     19.05%     80.95% |           6      9.52%     90.48% |           6      9.52%    100.00% (Unspecified)
system.caches.L2Cache_Controller.M.L1_GET_INSTR::total           63                       (Unspecified)
system.caches.L2Cache_Controller.M.L1_GETS |          35     20.00%     20.00% |          30     17.14%     37.14% |          23     13.14%     50.29% |          20     11.43%     61.71% |          22     12.57%     74.29% |          15      8.57%     82.86% |          11      6.29%     89.14% |          19     10.86%    100.00% (Unspecified)
system.caches.L2Cache_Controller.M.L1_GETS::total          175                       (Unspecified)
system.caches.L2Cache_Controller.M.L1_GETX |           1      2.56%      2.56% |           4     10.26%     12.82% |           2      5.13%     17.95% |           3      7.69%     25.64% |           0      0.00%     25.64% |          10     25.64%     51.28% |          10     25.64%     76.92% |           9     23.08%    100.00% (Unspecified)
system.caches.L2Cache_Controller.M.L1_GETX::total           39                       (Unspecified)
system.caches.L2Cache_Controller.M.L2_Replacement |      322026     12.51%     12.51% |      321699     12.50%     25.01% |      320813     12.46%     37.47% |      321572     12.49%     49.96% |      321123     12.47%     62.43% |      322832     12.54%     74.97% |      321767     12.50%     87.47% |      322474     12.53%    100.00% (Unspecified)
system.caches.L2Cache_Controller.M.L2_Replacement::total      2574306                       (Unspecified)
system.caches.L2Cache_Controller.M.L2_Replacement_clean |      295038     12.50%     12.50% |      295780     12.53%     25.04% |      295173     12.51%     37.54% |      294761     12.49%     50.04% |      295083     12.50%     62.54% |      294595     12.48%     75.02% |      294892     12.50%     87.52% |      294497     12.48%    100.00% (Unspecified)
system.caches.L2Cache_Controller.M.L2_Replacement_clean::total      2359819                       (Unspecified)
system.caches.L2Cache_Controller.MT.L1_GETS |         331     23.24%     23.24% |         216     15.17%     38.41% |         185     12.99%     51.40% |         100      7.02%     58.43% |          68      4.78%     63.20% |          55      3.86%     67.06% |         380     26.69%     93.75% |          89      6.25%    100.00% (Unspecified)
system.caches.L2Cache_Controller.MT.L1_GETS::total         1424                       (Unspecified)
system.caches.L2Cache_Controller.MT.L1_GETX |           6     50.00%     50.00% |           0      0.00%     50.00% |           0      0.00%     50.00% |           0      0.00%     50.00% |           0      0.00%     50.00% |           0      0.00%     50.00% |           6     50.00%    100.00% |           0      0.00%    100.00% (Unspecified)
system.caches.L2Cache_Controller.MT.L1_GETX::total           12                       (Unspecified)
system.caches.L2Cache_Controller.MT.L1_PUTX |      614179     12.51%     12.51% |      614616     12.51%     25.02% |      613097     12.48%     37.50% |      613459     12.49%     49.99% |      613350     12.49%     62.48% |      614575     12.51%     75.00% |      613799     12.50%     87.50% |      614120     12.50%    100.00% (Unspecified)
system.caches.L2Cache_Controller.MT.L1_PUTX::total      4911195                       (Unspecified)
system.caches.L2Cache_Controller.MT.L2_Replacement |           0      0.00%      0.00% |           0      0.00%      0.00% |           0      0.00%      0.00% |           3     75.00%     75.00% |           0      0.00%     75.00% |           0      0.00%     75.00% |           1     25.00%    100.00% |           0      0.00%    100.00% (Unspecified)
system.caches.L2Cache_Controller.MT.L2_Replacement::total            4                       (Unspecified)
system.caches.L2Cache_Controller.MT.L2_Replacement_clean |        2964     13.66%     13.66% |        2899     13.36%     27.02% |        2138      9.85%     36.88% |        2577     11.88%     48.76% |        2687     12.39%     61.14% |        2926     13.49%     74.63% |        2678     12.34%     86.97% |        2826     13.03%    100.00% (Unspecified)
system.caches.L2Cache_Controller.MT.L2_Replacement_clean::total        21695                       (Unspecified)
system.caches.L2Cache_Controller.M_I.L1_GET_INSTR |          20     30.30%     30.30% |           0      0.00%     30.30% |           0      0.00%     30.30% |           6      9.09%     39.39% |           0      0.00%     39.39% |           0      0.00%     39.39% |          12     18.18%     57.58% |          28     42.42%    100.00% (Unspecified)
system.caches.L2Cache_Controller.M_I.L1_GET_INSTR::total           66                       (Unspecified)
system.caches.L2Cache_Controller.M_I.Mem_Ack |      621891     12.52%     12.52% |      622114     12.52%     25.04% |      619799     12.48%     37.51% |      620110     12.48%     50.00% |      620370     12.49%     62.48% |      621771     12.51%     75.00% |      620651     12.49%     87.49% |      621514     12.51%    100.00% (Unspecified)
system.caches.L2Cache_Controller.M_I.Mem_Ack::total      4968220                       (Unspecified)
system.caches.L2Cache_Controller.MT_I.WB_Data |           0      0.00%      0.00% |           0      0.00%      0.00% |           0      0.00%      0.00% |           3     75.00%     75.00% |           0      0.00%     75.00% |           0      0.00%     75.00% |           1     25.00%    100.00% |           0      0.00%    100.00% (Unspecified)
system.caches.L2Cache_Controller.MT_I.WB_Data::total            4                       (Unspecified)
system.caches.L2Cache_Controller.MCT_I.L1_PUTX_old |           2     33.33%     33.33% |           1     16.67%     50.00% |           0      0.00%     50.00% |           0      0.00%     50.00% |           1     16.67%     66.67% |           0      0.00%     66.67% |           1     16.67%     83.33% |           1     16.67%    100.00% (Unspecified)
system.caches.L2Cache_Controller.MCT_I.L1_PUTX_old::total            6                       (Unspecified)
system.caches.L2Cache_Controller.MCT_I.WB_Data |        1743     13.55%     13.55% |        1745     13.56%     27.11% |        1288     10.01%     37.12% |        1561     12.13%     49.25% |        1562     12.14%     61.38% |        1778     13.82%     75.20% |        1580     12.28%     87.48% |        1611     12.52%    100.00% (Unspecified)
system.caches.L2Cache_Controller.MCT_I.WB_Data::total        12868                       (Unspecified)
system.caches.L2Cache_Controller.MCT_I.Ack_all |        1221     13.83%     13.83% |        1154     13.07%     26.91% |         850      9.63%     36.54% |        1016     11.51%     48.05% |        1125     12.74%     60.79% |        1148     13.01%     73.80% |        1098     12.44%     86.24% |        1215     13.76%    100.00% (Unspecified)
system.caches.L2Cache_Controller.MCT_I.Ack_all::total         8827                       (Unspecified)
system.caches.L2Cache_Controller.I_I.Ack |       10625     14.85%     14.85% |        9742     13.62%     28.47% |        9730     13.60%     42.08% |        6878      9.62%     51.69% |        8795     12.30%     63.99% |        8504     11.89%     75.88% |        7766     10.86%     86.73% |        9489     13.27%    100.00% (Unspecified)
system.caches.L2Cache_Controller.I_I.Ack::total        71529                       (Unspecified)
system.caches.L2Cache_Controller.I_I.Ack_all |        1777     14.54%     14.54% |        1693     13.85%     28.39% |        1675     13.70%     42.09% |        1197      9.79%     51.88% |        1477     12.08%     63.96% |        1418     11.60%     75.56% |        1270     10.39%     85.95% |        1717     14.05%    100.00% (Unspecified)
system.caches.L2Cache_Controller.I_I.Ack_all::total        12224                       (Unspecified)
system.caches.L2Cache_Controller.S_I.Ack |         580     50.00%     50.00% |         279     24.05%     74.05% |           0      0.00%     74.05% |           0      0.00%     74.05% |           0      0.00%     74.05% |           0      0.00%     74.05% |         301     25.95%    100.00% |           0      0.00%    100.00% (Unspecified)
system.caches.L2Cache_Controller.S_I.Ack::total         1160                       (Unspecified)
system.caches.L2Cache_Controller.S_I.Ack_all |          86     50.00%     50.00% |          43     25.00%     75.00% |           0      0.00%     75.00% |           0      0.00%     75.00% |           0      0.00%     75.00% |           0      0.00%     75.00% |          43     25.00%    100.00% |           0      0.00%    100.00% (Unspecified)
system.caches.L2Cache_Controller.S_I.Ack_all::total          172                       (Unspecified)
system.caches.L2Cache_Controller.ISS.L1_GETS |         380     18.20%     18.20% |         282     13.51%     31.70% |         325     15.57%     47.27% |         239     11.45%     58.72% |         224     10.73%     69.44% |         202      9.67%     79.12% |          66      3.16%     82.28% |         370     17.72%    100.00% (Unspecified)
system.caches.L2Cache_Controller.ISS.L1_GETS::total         2088                       (Unspecified)
system.caches.L2Cache_Controller.ISS.L1_GETX |           0      0.00%      0.00% |           0      0.00%      0.00% |           0      0.00%      0.00% |           0      0.00%      0.00% |           0      0.00%      0.00% |           0      0.00%      0.00% |           2    100.00%    100.00% |           0      0.00%    100.00% (Unspecified)
system.caches.L2Cache_Controller.ISS.L1_GETX::total            2                       (Unspecified)
system.caches.L2Cache_Controller.ISS.Mem_Data |      300748     12.52%     12.52% |      301090     12.53%     25.04% |      300099     12.49%     37.53% |      300154     12.49%     50.02% |      300198     12.49%     62.52% |      300112     12.49%     75.00% |      300296     12.50%     87.50% |      300380     12.50%    100.00% (Unspecified)
system.caches.L2Cache_Controller.ISS.Mem_Data::total      2403077                       (Unspecified)
system.caches.L2Cache_Controller.IS.L1_GET_INSTR |        3070     13.42%     13.42% |        3361     14.69%     28.11% |        2706     11.83%     39.93% |        2222      9.71%     49.65% |        3167     13.84%     63.49% |        3246     14.19%     77.67% |        2636     11.52%     89.20% |        2472     10.80%    100.00% (Unspecified)
system.caches.L2Cache_Controller.IS.L1_GET_INSTR::total        22880                       (Unspecified)
system.caches.L2Cache_Controller.IS.L1_GETS |         701     18.82%     18.82% |         673     18.07%     36.90% |         602     16.17%     53.06% |         442     11.87%     64.93% |         333      8.94%     73.87% |         455     12.22%     86.09% |         124      3.33%     89.42% |         394     10.58%    100.00% (Unspecified)
system.caches.L2Cache_Controller.IS.L1_GETS::total         3724                       (Unspecified)
system.caches.L2Cache_Controller.IS.Mem_Data |        1574     13.81%     13.81% |        1568     13.76%     27.58% |        1512     13.27%     40.85% |        1110      9.74%     50.59% |        1420     12.46%     63.05% |        1373     12.05%     75.10% |        1186     10.41%     85.51% |        1651     14.49%    100.00% (Unspecified)
system.caches.L2Cache_Controller.IS.Mem_Data::total        11394                       (Unspecified)
system.caches.L2Cache_Controller.IM.Mem_Data |      319564     12.51%     12.51% |      319454     12.51%     25.02% |      318187     12.46%     37.48% |      318845     12.49%     49.97% |      318751     12.48%     62.45% |      320285     12.54%     74.99% |      319167     12.50%     87.49% |      319482     12.51%    100.00% (Unspecified)
system.caches.L2Cache_Controller.IM.Mem_Data::total      2553735                       (Unspecified)
system.caches.L2Cache_Controller.SS_MB.L1_GETS |           0      0.00%      0.00% |           0      0.00%      0.00% |           0      0.00%      0.00% |           0      0.00%      0.00% |           0      0.00%      0.00% |           0      0.00%      0.00% |         691    100.00%    100.00% |           0      0.00%    100.00% (Unspecified)
system.caches.L2Cache_Controller.SS_MB.L1_GETS::total          691                       (Unspecified)
system.caches.L2Cache_Controller.SS_MB.Exclusive_Unblock |          21      7.29%      7.29% |          27      9.38%     16.67% |           0      0.00%     16.67% |           0      0.00%     16.67% |           0      0.00%     16.67% |           0      0.00%     16.67% |         240     83.33%    100.00% |           0      0.00%    100.00% (Unspecified)
system.caches.L2Cache_Controller.SS_MB.Exclusive_Unblock::total          288                       (Unspecified)
system.caches.L2Cache_Controller.MT_MB.L1_GETS |           2     10.00%     10.00% |           2     10.00%     20.00% |           5     25.00%     45.00% |           7     35.00%     80.00% |           4     20.00%    100.00% |           0      0.00%    100.00% |           0      0.00%    100.00% |           0      0.00%    100.00% (Unspecified)
system.caches.L2Cache_Controller.MT_MB.L1_GETS::total           20                       (Unspecified)
system.caches.L2Cache_Controller.MT_MB.Exclusive_Unblock |      620354     12.51%     12.51% |      620578     12.52%     25.03% |      618311     12.47%     37.51% |      619022     12.49%     49.99% |      618971     12.49%     62.48% |      620422     12.52%     75.00% |      619490     12.50%     87.49% |      619890     12.51%    100.00% (Unspecified)
system.caches.L2Cache_Controller.MT_MB.Exclusive_Unblock::total      4957038                       (Unspecified)
system.caches.L2Cache_Controller.MT_IIB.L1_GETS |          63      5.56%      5.56% |         122     10.77%     16.33% |          52      4.59%     20.92% |          13      1.15%     22.07% |          11      0.97%     23.04% |           9      0.79%     23.83% |         856     75.55%     99.38% |           7      0.62%    100.00% (Unspecified)
system.caches.L2Cache_Controller.MT_IIB.L1_GETS::total         1133                       (Unspecified)
system.caches.L2Cache_Controller.MT_IIB.WB_Data |          88     22.28%     22.28% |          44     11.14%     33.42% |           0      0.00%     33.42% |           0      0.00%     33.42% |           0      0.00%     33.42% |           0      0.00%     33.42% |         263     66.58%    100.00% |           0      0.00%    100.00% (Unspecified)
system.caches.L2Cache_Controller.MT_IIB.WB_Data::total          395                       (Unspecified)
system.caches.L2Cache_Controller.MT_IIB.WB_Data_clean |         243     23.62%     23.62% |         172     16.72%     40.33% |         185     17.98%     58.31% |         100      9.72%     68.03% |          68      6.61%     74.64% |          55      5.34%     79.98% |         117     11.37%     91.35% |          89      8.65%    100.00% (Unspecified)
system.caches.L2Cache_Controller.MT_IIB.WB_Data_clean::total         1029                       (Unspecified)
system.caches.L2Cache_Controller.MT_SB.L1_GETS |          14     35.90%     35.90% |          18     46.15%     82.05% |           1      2.56%     84.62% |           0      0.00%     84.62% |           1      2.56%     87.18% |           0      0.00%     87.18% |           5     12.82%    100.00% |           0      0.00%    100.00% (Unspecified)
system.caches.L2Cache_Controller.MT_SB.L1_GETS::total           39                       (Unspecified)
system.caches.L2Cache_Controller.MT_SB.L1_UPGRADE |           0      0.00%      0.00% |           0      0.00%      0.00% |           0      0.00%      0.00% |           0      0.00%      0.00% |           0      0.00%      0.00% |           0      0.00%      0.00% |          85    100.00%    100.00% |           0      0.00%    100.00% (Unspecified)
system.caches.L2Cache_Controller.MT_SB.L1_UPGRADE::total           85                       (Unspecified)
system.caches.L2Cache_Controller.MT_SB.Unblock |         331     23.24%     23.24% |         216     15.17%     38.41% |         185     12.99%     51.40% |         100      7.02%     58.43% |          68      4.78%     63.20% |          55      3.86%     67.06% |         380     26.69%     93.75% |          89      6.25%    100.00% (Unspecified)
system.caches.L2Cache_Controller.MT_SB.Unblock::total         1424                       (Unspecified)
system.caches.RequestType.LD.latency_hist_seqr::bucket_size          512                       (Unspecified)
system.caches.RequestType.LD.latency_hist_seqr::max_bucket         5119                       (Unspecified)
system.caches.RequestType.LD.latency_hist_seqr::samples      5427608                       (Unspecified)
system.caches.RequestType.LD.latency_hist_seqr::mean   276.337995                       (Unspecified)
system.caches.RequestType.LD.latency_hist_seqr::gmean    16.922715                       (Unspecified)
system.caches.RequestType.LD.latency_hist_seqr::stdev   376.274375                       (Unspecified)
system.caches.RequestType.LD.latency_hist_seqr |     4130124     76.09%     76.09% |     1162717     21.42%     97.52% |       89406      1.65%     99.16% |        7422      0.14%     99.30% |       20806      0.38%     99.68% |       15540      0.29%     99.97% |        1492      0.03%    100.00% |          91      0.00%    100.00% |           8      0.00%    100.00% |           2      0.00%    100.00% (Unspecified)
system.caches.RequestType.LD.latency_hist_seqr::total      5427608                       (Unspecified)
system.caches.RequestType.LD.hit_latency_hist_seqr::bucket_size            1                       (Unspecified)
system.caches.RequestType.LD.hit_latency_hist_seqr::max_bucket            9                       (Unspecified)
system.caches.RequestType.LD.hit_latency_hist_seqr::samples      2999330                       (Unspecified)
system.caches.RequestType.LD.hit_latency_hist_seqr::mean     1.000118                       (Unspecified)
system.caches.RequestType.LD.hit_latency_hist_seqr::gmean     1.000082                       (Unspecified)
system.caches.RequestType.LD.hit_latency_hist_seqr::stdev     0.010879                       (Unspecified)
system.caches.RequestType.LD.hit_latency_hist_seqr |           0      0.00%      0.00% |     2998975     99.99%     99.99% |         355      0.01%    100.00% |           0      0.00%    100.00% |           0      0.00%    100.00% |           0      0.00%    100.00% |           0      0.00%    100.00% |           0      0.00%    100.00% |           0      0.00%    100.00% |           0      0.00%    100.00% (Unspecified)
system.caches.RequestType.LD.hit_latency_hist_seqr::total      2999330                       (Unspecified)
system.caches.RequestType.LD.miss_latency_hist_seqr::bucket_size          512                       (Unspecified)
system.caches.RequestType.LD.miss_latency_hist_seqr::max_bucket         5119                       (Unspecified)
system.caches.RequestType.LD.miss_latency_hist_seqr::samples      2428278                       (Unspecified)
system.caches.RequestType.LD.miss_latency_hist_seqr::mean   616.426385                       (Unspecified)
system.caches.RequestType.LD.miss_latency_hist_seqr::gmean   556.919279                       (Unspecified)
system.caches.RequestType.LD.miss_latency_hist_seqr::stdev   327.354616                       (Unspecified)
system.caches.RequestType.LD.miss_latency_hist_seqr |     1130794     46.57%     46.57% |     1162717     47.88%     94.45% |       89406      3.68%     98.13% |        7422      0.31%     98.44% |       20806      0.86%     99.29% |       15540      0.64%     99.93% |        1492      0.06%    100.00% |          91      0.00%    100.00% |           8      0.00%    100.00% |           2      0.00%    100.00% (Unspecified)
system.caches.RequestType.LD.miss_latency_hist_seqr::total      2428278                       (Unspecified)
system.caches.RequestType.ST.latency_hist_seqr::bucket_size          512                       (Unspecified)
system.caches.RequestType.ST.latency_hist_seqr::max_bucket         5119                       (Unspecified)
system.caches.RequestType.ST.latency_hist_seqr::samples     20351540                       (Unspecified)
system.caches.RequestType.ST.latency_hist_seqr::mean    81.323894                       (Unspecified)
system.caches.RequestType.ST.latency_hist_seqr::gmean     2.224391                       (Unspecified)
system.caches.RequestType.ST.latency_hist_seqr::stdev   242.087171                       (Unspecified)
system.caches.RequestType.ST.latency_hist_seqr |    18944923     93.09%     93.09% |     1258764      6.19%     99.27% |      100737      0.49%     99.77% |        5649      0.03%     99.80% |       21602      0.11%     99.90% |       18332      0.09%     99.99% |        1458      0.01%    100.00% |          73      0.00%    100.00% |           2      0.00%    100.00% |           0      0.00%    100.00% (Unspecified)
system.caches.RequestType.ST.latency_hist_seqr::total     20351540                       (Unspecified)
system.caches.RequestType.ST.hit_latency_hist_seqr::bucket_size           64                       (Unspecified)
system.caches.RequestType.ST.hit_latency_hist_seqr::max_bucket          639                       (Unspecified)
system.caches.RequestType.ST.hit_latency_hist_seqr::samples     17802429                       (Unspecified)
system.caches.RequestType.ST.hit_latency_hist_seqr::mean     1.000272                       (Unspecified)
system.caches.RequestType.ST.hit_latency_hist_seqr::gmean     1.000068                       (Unspecified)
system.caches.RequestType.ST.hit_latency_hist_seqr::stdev     0.242617                       (Unspecified)
system.caches.RequestType.ST.hit_latency_hist_seqr |    17802418    100.00%    100.00% |           2      0.00%    100.00% |           2      0.00%    100.00% |           2      0.00%    100.00% |           1      0.00%    100.00% |           2      0.00%    100.00% |           0      0.00%    100.00% |           1      0.00%    100.00% |           1      0.00%    100.00% |           0      0.00%    100.00% (Unspecified)
system.caches.RequestType.ST.hit_latency_hist_seqr::total     17802429                       (Unspecified)
system.caches.RequestType.ST.miss_latency_hist_seqr::bucket_size          512                       (Unspecified)
system.caches.RequestType.ST.miss_latency_hist_seqr::max_bucket         5119                       (Unspecified)
system.caches.RequestType.ST.miss_latency_hist_seqr::samples      2549111                       (Unspecified)
system.caches.RequestType.ST.miss_latency_hist_seqr::mean   642.286353                       (Unspecified)
system.caches.RequestType.ST.miss_latency_hist_seqr::gmean   591.357578                       (Unspecified)
system.caches.RequestType.ST.miss_latency_hist_seqr::stdev   328.878631                       (Unspecified)
system.caches.RequestType.ST.miss_latency_hist_seqr |     1142495     44.82%     44.82% |     1258763     49.38%     94.20% |      100737      3.95%     98.15% |        5649      0.22%     98.37% |       21602      0.85%     99.22% |       18332      0.72%     99.94% |        1458      0.06%    100.00% |          73      0.00%    100.00% |           2      0.00%    100.00% |           0      0.00%    100.00% (Unspecified)
system.caches.RequestType.ST.miss_latency_hist_seqr::total      2549111                       (Unspecified)
system.caches.RequestType.IFETCH.latency_hist_seqr::bucket_size          512                       (Unspecified)
system.caches.RequestType.IFETCH.latency_hist_seqr::max_bucket         5119                       (Unspecified)
system.caches.RequestType.IFETCH.latency_hist_seqr::samples      9143149                       (Unspecified)
system.caches.RequestType.IFETCH.latency_hist_seqr::mean     1.967417                       (Unspecified)
system.caches.RequestType.IFETCH.latency_hist_seqr::gmean     1.028920                       (Unspecified)
system.caches.RequestType.IFETCH.latency_hist_seqr::stdev    18.177129                       (Unspecified)
system.caches.RequestType.IFETCH.latency_hist_seqr |     9142116     99.99%     99.99% |         731      0.01%    100.00% |         190      0.00%    100.00% |          93      0.00%    100.00% |          12      0.00%    100.00% |           7      0.00%    100.00% |           0      0.00%    100.00% |           0      0.00%    100.00% |           0      0.00%    100.00% |           0      0.00%    100.00% (Unspecified)
system.caches.RequestType.IFETCH.latency_hist_seqr::total      9143149                       (Unspecified)
system.caches.RequestType.IFETCH.hit_latency_hist_seqr::bucket_size            1                       (Unspecified)
system.caches.RequestType.IFETCH.hit_latency_hist_seqr::max_bucket            9                       (Unspecified)
system.caches.RequestType.IFETCH.hit_latency_hist_seqr::samples      9078200                       (Unspecified)
system.caches.RequestType.IFETCH.hit_latency_hist_seqr::mean            1                       (Unspecified)
system.caches.RequestType.IFETCH.hit_latency_hist_seqr::gmean            1                       (Unspecified)
system.caches.RequestType.IFETCH.hit_latency_hist_seqr |           0      0.00%      0.00% |     9078200    100.00%    100.00% |           0      0.00%    100.00% |           0      0.00%    100.00% |           0      0.00%    100.00% |           0      0.00%    100.00% |           0      0.00%    100.00% |           0      0.00%    100.00% |           0      0.00%    100.00% |           0      0.00%    100.00% (Unspecified)
system.caches.RequestType.IFETCH.hit_latency_hist_seqr::total      9078200                       (Unspecified)
system.caches.RequestType.IFETCH.miss_latency_hist_seqr::bucket_size          512                       (Unspecified)
system.caches.RequestType.IFETCH.miss_latency_hist_seqr::max_bucket         5119                       (Unspecified)
system.caches.RequestType.IFETCH.miss_latency_hist_seqr::samples        64949                       (Unspecified)
system.caches.RequestType.IFETCH.miss_latency_hist_seqr::mean   137.187486                       (Unspecified)
system.caches.RequestType.IFETCH.miss_latency_hist_seqr::gmean    55.337274                       (Unspecified)
system.caches.RequestType.IFETCH.miss_latency_hist_seqr::stdev   167.624879                       (Unspecified)
system.caches.RequestType.IFETCH.miss_latency_hist_seqr |       63916     98.41%     98.41% |         731      1.13%     99.54% |         190      0.29%     99.83% |          93      0.14%     99.97% |          12      0.02%     99.99% |           7      0.01%    100.00% |           0      0.00%    100.00% |           0      0.00%    100.00% |           0      0.00%    100.00% |           0      0.00%    100.00% (Unspecified)
system.caches.RequestType.IFETCH.miss_latency_hist_seqr::total        64949                       (Unspecified)
system.caches.RequestType.RMW_Read.latency_hist_seqr::bucket_size          512                       (Unspecified)
system.caches.RequestType.RMW_Read.latency_hist_seqr::max_bucket         5119                       (Unspecified)
system.caches.RequestType.RMW_Read.latency_hist_seqr::samples        12596                       (Unspecified)
system.caches.RequestType.RMW_Read.latency_hist_seqr::mean   295.994760                       (Unspecified)
system.caches.RequestType.RMW_Read.latency_hist_seqr::gmean    11.023153                       (Unspecified)
system.caches.RequestType.RMW_Read.latency_hist_seqr::stdev   534.968443                       (Unspecified)
system.caches.RequestType.RMW_Read.latency_hist_seqr |        9769     77.56%     77.56% |        1629     12.93%     90.49% |         663      5.26%     95.75% |         332      2.64%     98.39% |          97      0.77%     99.16% |          54      0.43%     99.59% |          36      0.29%     99.87% |          14      0.11%     99.98% |           2      0.02%    100.00% |           0      0.00%    100.00% (Unspecified)
system.caches.RequestType.RMW_Read.latency_hist_seqr::total        12596                       (Unspecified)
system.caches.RequestType.RMW_Read.hit_latency_hist_seqr::bucket_size          256                       (Unspecified)
system.caches.RequestType.RMW_Read.hit_latency_hist_seqr::max_bucket         2559                       (Unspecified)
system.caches.RequestType.RMW_Read.hit_latency_hist_seqr::samples         8426                       (Unspecified)
system.caches.RequestType.RMW_Read.hit_latency_hist_seqr::mean    26.153928                       (Unspecified)
system.caches.RequestType.RMW_Read.hit_latency_hist_seqr::gmean     1.497957                       (Unspecified)
system.caches.RequestType.RMW_Read.hit_latency_hist_seqr::stdev   125.748995                       (Unspecified)
system.caches.RequestType.RMW_Read.hit_latency_hist_seqr |        8063     95.69%     95.69% |         212      2.52%     98.21% |         114      1.35%     99.56% |          22      0.26%     99.82% |           8      0.09%     99.92% |           1      0.01%     99.93% |           3      0.04%     99.96% |           1      0.01%     99.98% |           0      0.00%     99.98% |           2      0.02%    100.00% (Unspecified)
system.caches.RequestType.RMW_Read.hit_latency_hist_seqr::total         8426                       (Unspecified)
system.caches.RequestType.RMW_Read.miss_latency_hist_seqr::bucket_size          512                       (Unspecified)
system.caches.RequestType.RMW_Read.miss_latency_hist_seqr::max_bucket         5119                       (Unspecified)
system.caches.RequestType.RMW_Read.miss_latency_hist_seqr::samples         4170                       (Unspecified)
system.caches.RequestType.RMW_Read.miss_latency_hist_seqr::mean   841.241487                       (Unspecified)
system.caches.RequestType.RMW_Read.miss_latency_hist_seqr::gmean   622.006719                       (Unspecified)
system.caches.RequestType.RMW_Read.miss_latency_hist_seqr::stdev   622.999720                       (Unspecified)
system.caches.RequestType.RMW_Read.miss_latency_hist_seqr |        1494     35.83%     35.83% |        1493     35.80%     71.63% |         654     15.68%     87.31% |         328      7.87%     95.18% |          95      2.28%     97.46% |          54      1.29%     98.75% |          36      0.86%     99.62% |          14      0.34%     99.95% |           2      0.05%    100.00% |           0      0.00%    100.00% (Unspecified)
system.caches.RequestType.RMW_Read.miss_latency_hist_seqr::total         4170                       (Unspecified)
system.caches.RequestType.Locked_RMW_Read.latency_hist_seqr::bucket_size          512                       (Unspecified)
system.caches.RequestType.Locked_RMW_Read.latency_hist_seqr::max_bucket         5119                       (Unspecified)
system.caches.RequestType.Locked_RMW_Read.latency_hist_seqr::samples         2555                       (Unspecified)
system.caches.RequestType.Locked_RMW_Read.latency_hist_seqr::mean   365.165558                       (Unspecified)
system.caches.RequestType.Locked_RMW_Read.latency_hist_seqr::gmean     8.095781                       (Unspecified)
system.caches.RequestType.Locked_RMW_Read.latency_hist_seqr::stdev   676.102758                       (Unspecified)
system.caches.RequestType.Locked_RMW_Read.latency_hist_seqr |        1928     75.46%     75.46% |         206      8.06%     83.52% |         103      4.03%     87.55% |         278     10.88%     98.43% |          20      0.78%     99.22% |           6      0.23%     99.45% |          13      0.51%     99.96% |           1      0.04%    100.00% |           0      0.00%    100.00% |           0      0.00%    100.00% (Unspecified)
system.caches.RequestType.Locked_RMW_Read.latency_hist_seqr::total         2555                       (Unspecified)
system.caches.RequestType.Locked_RMW_Read.hit_latency_hist_seqr::bucket_size            1                       (Unspecified)
system.caches.RequestType.Locked_RMW_Read.hit_latency_hist_seqr::max_bucket            9                       (Unspecified)
system.caches.RequestType.Locked_RMW_Read.hit_latency_hist_seqr::samples         1762                       (Unspecified)
system.caches.RequestType.Locked_RMW_Read.hit_latency_hist_seqr::mean            1                       (Unspecified)
system.caches.RequestType.Locked_RMW_Read.hit_latency_hist_seqr::gmean            1                       (Unspecified)
system.caches.RequestType.Locked_RMW_Read.hit_latency_hist_seqr |           0      0.00%      0.00% |        1762    100.00%    100.00% |           0      0.00%    100.00% |           0      0.00%    100.00% |           0      0.00%    100.00% |           0      0.00%    100.00% |           0      0.00%    100.00% |           0      0.00%    100.00% |           0      0.00%    100.00% |           0      0.00%    100.00% (Unspecified)
system.caches.RequestType.Locked_RMW_Read.hit_latency_hist_seqr::total         1762                       (Unspecified)
system.caches.RequestType.Locked_RMW_Read.miss_latency_hist_seqr::bucket_size          512                       (Unspecified)
system.caches.RequestType.Locked_RMW_Read.miss_latency_hist_seqr::max_bucket         5119                       (Unspecified)
[...]
system.o3Cpu7.iew.squashCycles                   4208                       # Number of cycles IEW is squashing (Cycle)
system.o3Cpu7.iew.blockCycles                27626296                       # Number of cycles IEW is blocking (Cycle)
system.o3Cpu7.iew.unblockCycles              64408203                       # Number of cycles IEW is unblocking (Cycle)
system.o3Cpu7.iew.dispatchedInsts            11015744                       # Number of instructions dispatched to IQ (Count)
system.o3Cpu7.iew.dispSquashedInsts              1419                       # Number of squashed instructions skipped by dispatch (Count)
system.o3Cpu7.iew.dispLoadInsts               2302735                       # Number of dispatched load instructions (Count)
system.o3Cpu7.iew.dispStoreInsts              2556227                       # Number of dispatched store instructions (Count)
system.o3Cpu7.iew.dispNonSpecInsts               1680                       # Number of dispatched non-speculative instructions (Count)
system.o3Cpu7.iew.iqFullEvents                  57255                       # Number of times the IQ has become full, causing a stall (Count)
system.o3Cpu7.iew.lsqFullEvents              64276013                       # Number of times the LSQ has become full, causing a stall (Count)
system.o3Cpu7.iew.memOrderViolationEvents          173                       # Number of memory order violations (Count)
system.o3Cpu7.iew.predictedTakenIncorrect         3333                       # Number of branches that were predicted taken incorrectly (Count)
system.o3Cpu7.iew.predictedNotTakenIncorrect          669                       # Number of branches that were predicted not taken incorrectly (Count)
system.o3Cpu7.iew.branchMispredicts              4002                       # Number of branch mispredicts detected at execute (Count)
system.o3Cpu7.iew.instsToCommit              10996744                       # Cumulative count of insts sent to commit (Count)
system.o3Cpu7.iew.writebackCount             10995135                       # Cumulative count of insts written-back (Count)
system.o3Cpu7.iew.producerInst                5425580                       # Number of instructions producing a value (Count)
system.o3Cpu7.iew.consumerInst                9885480                       # Number of instructions consuming a value (Count)
system.o3Cpu7.iew.wbRate                     0.051094                       # Insts written-back per cycle ((Count/Cycle))
system.o3Cpu7.iew.wbFanout                   0.548843                       # Average fanout of values written-back ((Count/Count))
system.o3Cpu7.interrupts.clk_domain.clock         3200                       # Clock period in ticks (Tick)
system.o3Cpu7.lsq0.forwLoads                     4026                       # Number of loads that had data forwarded from stores (Count)
system.o3Cpu7.lsq0.squashedLoads                 6984                       # Number of loads squashed (Count)
system.o3Cpu7.lsq0.ignoredResponses                 0                       # Number of memory responses ignored because the instruction is squashed (Count)
system.o3Cpu7.lsq0.memOrderViolation              173                       # Number of memory ordering violations (Count)
system.o3Cpu7.lsq0.squashedStores                1736                       # Number of stores squashed (Count)
system.o3Cpu7.lsq0.rescheduledLoads                42                       # Number of loads that were rescheduled (Count)
system.o3Cpu7.lsq0.blockedByCache               43513                       # Number of times an access to memory failed due to the cache being blocked (Count)
system.o3Cpu7.lsq0.loadToUse::samples         2295745                       # Distribution of cycle latency between the first time a load is issued and its completion (Unspecified)
system.o3Cpu7.lsq0.loadToUse::mean         418.804555                       # Distribution of cycle latency between the first time a load is issued and its completion (Unspecified)
system.o3Cpu7.lsq0.loadToUse::stdev        376.042680                       # Distribution of cycle latency between the first time a load is issued and its completion (Unspecified)
system.o3Cpu7.lsq0.loadToUse::0-9              571082     24.88%     24.88% # Distribution of cycle latency between the first time a load is issued and its completion (Unspecified)
system.o3Cpu7.lsq0.loadToUse::10-19             11622      0.51%     25.38% # Distribution of cycle latency between the first time a load is issued and its completion (Unspecified)
system.o3Cpu7.lsq0.loadToUse::20-29             13164      0.57%     25.96% # Distribution of cycle latency between the first time a load is issued and its completion (Unspecified)
system.o3Cpu7.lsq0.loadToUse::30-39             11587      0.50%     26.46% # Distribution of cycle latency between the first time a load is issued and its completion (Unspecified)
system.o3Cpu7.lsq0.loadToUse::40-49              9644      0.42%     26.88% # Distribution of cycle latency between the first time a load is issued and its completion (Unspecified)
system.o3Cpu7.lsq0.loadToUse::50-59              8929      0.39%     27.27% # Distribution of cycle latency between the first time a load is issued and its completion (Unspecified)
system.o3Cpu7.lsq0.loadToUse::60-69              7765      0.34%     27.61% # Distribution of cycle latency between the first time a load is issued and its completion (Unspecified)
system.o3Cpu7.lsq0.loadToUse::70-79              8292      0.36%     27.97% # Distribution of cycle latency between the first time a load is issued and its completion (Unspecified)
system.o3Cpu7.lsq0.loadToUse::80-89              7553      0.33%     28.30% # Distribution of cycle latency between the first time a load is issued and its completion (Unspecified)
system.o3Cpu7.lsq0.loadToUse::90-99              6233      0.27%     28.57% # Distribution of cycle latency between the first time a load is issued and its completion (Unspecified)
system.o3Cpu7.lsq0.loadToUse::100-109            6486      0.28%     28.85% # Distribution of cycle latency between the first time a load is issued and its completion (Unspecified)
system.o3Cpu7.lsq0.loadToUse::110-119            5349      0.23%     29.08% # Distribution of cycle latency between the first time a load is issued and its completion (Unspecified)
system.o3Cpu7.lsq0.loadToUse::120-129            5467      0.24%     29.32% # Distribution of cycle latency between the first time a load is issued and its completion (Unspecified)
system.o3Cpu7.lsq0.loadToUse::130-139            5470      0.24%     29.56% # Distribution of cycle latency between the first time a load is issued and its completion (Unspecified)
system.o3Cpu7.lsq0.loadToUse::140-149            4597      0.20%     29.76% # Distribution of cycle latency between the first time a load is issued and its completion (Unspecified)
system.o3Cpu7.lsq0.loadToUse::150-159            4327      0.19%     29.95% # Distribution of cycle latency between the first time a load is issued and its completion (Unspecified)
system.o3Cpu7.lsq0.loadToUse::160-169            4051      0.18%     30.13% # Distribution of cycle latency between the first time a load is issued and its completion (Unspecified)
system.o3Cpu7.lsq0.loadToUse::170-179            3911      0.17%     30.30% # Distribution of cycle latency between the first time a load is issued and its completion (Unspecified)
system.o3Cpu7.lsq0.loadToUse::180-189            3378      0.15%     30.44% # Distribution of cycle latency between the first time a load is issued and its completion (Unspecified)
system.o3Cpu7.lsq0.loadToUse::190-199            3237      0.14%     30.58% # Distribution of cycle latency between the first time a load is issued and its completion (Unspecified)
system.o3Cpu7.lsq0.loadToUse::200-209            3312      0.14%     30.73% # Distribution of cycle latency between the first time a load is issued and its completion (Unspecified)
system.o3Cpu7.lsq0.loadToUse::210-219            3290      0.14%     30.87% # Distribution of cycle latency between the first time a load is issued and its completion (Unspecified)
system.o3Cpu7.lsq0.loadToUse::220-229            3323      0.14%     31.02% # Distribution of cycle latency between the first time a load is issued and its completion (Unspecified)
system.o3Cpu7.lsq0.loadToUse::230-239            2796      0.12%     31.14% # Distribution of cycle latency between the first time a load is issued and its completion (Unspecified)
system.o3Cpu7.lsq0.loadToUse::240-249            3215      0.14%     31.28% # Distribution of cycle latency between the first time a load is issued and its completion (Unspecified)
system.o3Cpu7.lsq0.loadToUse::250-259            3140      0.14%     31.42% # Distribution of cycle latency between the first time a load is issued and its completion (Unspecified)
system.o3Cpu7.lsq0.loadToUse::260-269            3037      0.13%     31.55% # Distribution of cycle latency between the first time a load is issued and its completion (Unspecified)
system.o3Cpu7.lsq0.loadToUse::270-279            3161      0.14%     31.69% # Distribution of cycle latency between the first time a load is issued and its completion (Unspecified)
system.o3Cpu7.lsq0.loadToUse::280-289            2942      0.13%     31.81% # Distribution of cycle latency between the first time a load is issued and its completion (Unspecified)
system.o3Cpu7.lsq0.loadToUse::290-299            3608      0.16%     31.97% # Distribution of cycle latency between the first time a load is issued and its completion (Unspecified)
system.o3Cpu7.lsq0.loadToUse::overflows       1561777     68.03%    100.00% # Distribution of cycle latency between the first time a load is issued and its completion (Unspecified)
system.o3Cpu7.lsq0.loadToUse::min_value             2                       # Distribution of cycle latency between the first time a load is issued and its completion (Unspecified)
system.o3Cpu7.lsq0.loadToUse::max_value          4769                       # Distribution of cycle latency between the first time a load is issued and its completion (Unspecified)
system.o3Cpu7.lsq0.loadToUse::total           2295745                       # Distribution of cycle latency between the first time a load is issued and its completion (Unspecified)
system.o3Cpu7.mmu.dtb.rdAccesses              2302334                       # TLB accesses on read requests (Count)
system.o3Cpu7.mmu.dtb.wrAccesses              2556487                       # TLB accesses on write requests (Count)
system.o3Cpu7.mmu.dtb.rdMisses                   1700                       # TLB misses on read requests (Count)
system.o3Cpu7.mmu.dtb.wrMisses                   1252                       # TLB misses on write requests (Count)
system.o3Cpu7.mmu.dtb.walker.power_state.pwrStateResidencyTicks::UNDEFINED  44053519200                       # Cumulative time (in ticks) in various power states (Tick)
system.o3Cpu7.mmu.itb.rdAccesses                    0                       # TLB accesses on read requests (Count)
system.o3Cpu7.mmu.itb.wrAccesses              1065213                       # TLB accesses on write requests (Count)
system.o3Cpu7.mmu.itb.rdMisses                      0                       # TLB misses on read requests (Count)
system.o3Cpu7.mmu.itb.wrMisses                     93                       # TLB misses on write requests (Count)
system.o3Cpu7.mmu.itb.walker.power_state.pwrStateResidencyTicks::UNDEFINED  44053519200                       # Cumulative time (in ticks) in various power states (Tick)
system.o3Cpu7.power_state.pwrStateResidencyTicks::OFF  44053519200                       # Cumulative time (in ticks) in various power states (Tick)
system.o3Cpu7.rename.squashCycles                4208                       # Number of cycles rename is squashing (Cycle)
system.o3Cpu7.rename.idleCycles               1119419                       # Number of cycles rename is idle (Cycle)
system.o3Cpu7.rename.blockCycles             93843656                       # Number of cycles rename is blocking (Cycle)
system.o3Cpu7.rename.serializeStallCycles       368147                       # count of cycles rename stalled for serializing inst (Cycle)
system.o3Cpu7.rename.runCycles                2379118                       # Number of cycles rename is running (Cycle)
system.o3Cpu7.rename.unblockCycles          117193414                       # Number of cycles rename is unblocking (Cycle)
system.o3Cpu7.rename.renamedInsts            11035255                       # Number of instructions processed by rename (Count)
system.o3Cpu7.rename.ROBFullEvents              68156                       # Number of times rename has blocked due to ROB full (Count)
system.o3Cpu7.rename.IQFullEvents             5757598                       # Number of times rename has blocked due to IQ full (Count)
system.o3Cpu7.rename.LQFullEvents             2992880                       # Number of times rename has blocked due to LQ full (Count)
system.o3Cpu7.rename.SQFullEvents           113730476                       # Number of times rename has blocked due to SQ full (Count)
system.o3Cpu7.rename.renamedOperands         13865638                       # Number of destination operands rename has renamed (Count)
system.o3Cpu7.rename.lookups                 35386129                       # Number of register rename lookups that rename has made (Count)
system.o3Cpu7.rename.intLookups               7977204                       # Number of integer rename lookups (Count)
system.o3Cpu7.rename.fpLookups                9604122                       # Number of floating rename lookups (Count)
system.o3Cpu7.rename.committedMaps           13765991                       # Number of HB maps that are committed (Count)
system.o3Cpu7.rename.undoneMaps                 99641                       # Number of HB maps that are undone due to squashing (Count)
system.o3Cpu7.rename.serializing                 1691                       # count of serializing insts renamed (Count)
system.o3Cpu7.rename.tempSerializing             1729                       # count of temporary serializing insts renamed (Count)
system.o3Cpu7.rename.skidInsts                2921249                       # count of insts added to the skid buffer (Count)
system.o3Cpu7.rob.reads                     223885900                       # The number of ROB reads (Count)
system.o3Cpu7.rob.writes                     22040456                       # The number of ROB writes (Count)
system.o3Cpu7.thread_0.numInsts               6637633                       # Number of Instructions committed (Count)
system.o3Cpu7.thread_0.numOps                10978061                       # Number of Ops committed (Count)
system.o3Cpu7.thread_0.numMemRefs                   0                       # Number of Memory References (Count)
system.pc.bad_addr.power_state.pwrStateResidencyTicks::UNDEFINED  44053519200                       # Cumulative time (in ticks) in various power states (Tick)
system.pc.com_1.power_state.pwrStateResidencyTicks::UNDEFINED  44053519200                       # Cumulative time (in ticks) in various power states (Tick)
system.pc.default_bus.power_state.pwrStateResidencyTicks::UNDEFINED  44053519200                       # Cumulative time (in ticks) in various power states (Tick)
system.pc.empty_isa.power_state.pwrStateResidencyTicks::UNDEFINED  44053519200                       # Cumulative time (in ticks) in various power states (Tick)
system.pc.fake_com_2.power_state.pwrStateResidencyTicks::UNDEFINED  44053519200                       # Cumulative time (in ticks) in various power states (Tick)
system.pc.fake_com_3.power_state.pwrStateResidencyTicks::UNDEFINED  44053519200                       # Cumulative time (in ticks) in various power states (Tick)
system.pc.fake_com_4.power_state.pwrStateResidencyTicks::UNDEFINED  44053519200                       # Cumulative time (in ticks) in various power states (Tick)
system.pc.fake_floppy.power_state.pwrStateResidencyTicks::UNDEFINED  44053519200                       # Cumulative time (in ticks) in various power states (Tick)
system.pc.pci_host.power_state.pwrStateResidencyTicks::UNDEFINED  44053519200                       # Cumulative time (in ticks) in various power states (Tick)
system.pc.south_bridge.cmos.power_state.pwrStateResidencyTicks::UNDEFINED  44053519200                       # Cumulative time (in ticks) in various power states (Tick)
system.pc.south_bridge.dma1.power_state.pwrStateResidencyTicks::UNDEFINED  44053519200                       # Cumulative time (in ticks) in various power states (Tick)
system.pc.south_bridge.ide.disks0.IdeDisk.dmaReadFullPages            0                       # Number of full page size DMA reads (not PRD). (Count)
system.pc.south_bridge.ide.disks0.IdeDisk.dmaReadBytes            0                       # Number of bytes transfered via DMA reads (not PRD). (Byte)
system.pc.south_bridge.ide.disks0.IdeDisk.dmaReadTxs            0                       # Number of DMA read transactions (not PRD). (Count)
system.pc.south_bridge.ide.disks0.IdeDisk.dmaWriteFullPages            0                       # Number of full page size DMA writes. (Count)
system.pc.south_bridge.ide.disks0.IdeDisk.dmaWriteBytes            0                       # Number of bytes transfered via DMA writes. (Byte)
system.pc.south_bridge.ide.disks0.IdeDisk.dmaWriteTxs            0                       # Number of DMA write transactions. (Count)
system.pc.south_bridge.ide.disks1.IdeDisk.dmaReadFullPages            0                       # Number of full page size DMA reads (not PRD). (Count)
system.pc.south_bridge.ide.disks1.IdeDisk.dmaReadBytes            0                       # Number of bytes transfered via DMA reads (not PRD). (Byte)
system.pc.south_bridge.ide.disks1.IdeDisk.dmaReadTxs            0                       # Number of DMA read transactions (not PRD). (Count)
system.pc.south_bridge.ide.disks1.IdeDisk.dmaWriteFullPages            0                       # Number of full page size DMA writes. (Count)
system.pc.south_bridge.ide.disks1.IdeDisk.dmaWriteBytes            0                       # Number of bytes transfered via DMA writes. (Byte)
system.pc.south_bridge.ide.disks1.IdeDisk.dmaWriteTxs            0                       # Number of DMA write transactions. (Count)
system.pc.south_bridge.ide.power_state.pwrStateResidencyTicks::UNDEFINED  44053519200                       # Cumulative time (in ticks) in various power states (Tick)
system.pc.south_bridge.io_apic.power_state.pwrStateResidencyTicks::UNDEFINED  44053519200                       # Cumulative time (in ticks) in various power states (Tick)
system.pc.south_bridge.keyboard.power_state.pwrStateResidencyTicks::UNDEFINED  44053519200                       # Cumulative time (in ticks) in various power states (Tick)
system.pc.south_bridge.pic1.power_state.pwrStateResidencyTicks::UNDEFINED  44053519200                       # Cumulative time (in ticks) in various power states (Tick)
system.pc.south_bridge.pic2.power_state.pwrStateResidencyTicks::UNDEFINED  44053519200                       # Cumulative time (in ticks) in various power states (Tick)
system.pc.south_bridge.pit.power_state.pwrStateResidencyTicks::UNDEFINED  44053519200                       # Cumulative time (in ticks) in various power states (Tick)
system.pc.south_bridge.speaker.power_state.pwrStateResidencyTicks::UNDEFINED  44053519200                       # Cumulative time (in ticks) in various power states (Tick)
system.workload.inst.arm                            0                       # number of arm instructions executed (Count)
system.workload.inst.quiesce                        0                       # number of quiesce instructions executed (Count)

---------- End Simulation Statistics   ----------
