
---------- Begin Simulation Statistics ----------
simSeconds                                   0.043128                       # Number of seconds simulated (Second)
simTicks                                  43127709560                       # Number of ticks simulated (Tick)
finalTick                                264595814476200                       # Number of ticks from beginning of simulation (restored from checkpoints and never reset) (Tick)
simFreq                                  1000000000000                       # The number of ticks per simulated second ((Tick/Second))
hostSeconds                                  11026.87                       # Real time elapsed on the host (Second)
hostTickRate                                  3911146                       # The number of ticks simulated per host second (ticks/s) ((Tick/Second))
hostMemory                                   19954256                       # Number of bytes of host memory used (Byte)
simInsts                                    338367750                       # Number of instructions simulated (Count)
simOps                                      567056090                       # Number of ops (including micro ops) simulated (Count)
hostInstRate                                    30686                       # Simulator instruction rate (inst/s) ((Count/Second))
hostOpRate                                      51425                       # Simulator op (including micro ops) rate (op/s) ((Count/Second))
system.caches.delayHistogram::bucket_size          512                       # delay histogram for all message (Unspecified)
system.caches.delayHistogram::max_bucket         5119                       # delay histogram for all message (Unspecified)
system.caches.delayHistogram::samples        27935956                       # delay histogram for all message (Unspecified)
system.caches.delayHistogram::mean           0.289132                       # delay histogram for all message (Unspecified)
system.caches.delayHistogram::stdev          2.260971                       # delay histogram for all message (Unspecified)
system.caches.delayHistogram             |    27935937    100.00%    100.00% |           6      0.00%    100.00% |           7      0.00%    100.00% |           1      0.00%    100.00% |           2      0.00%    100.00% |           1      0.00%    100.00% |           0      0.00%    100.00% |           1      0.00%    100.00% |           0      0.00%    100.00% |           1      0.00%    100.00% # delay histogram for all message (Unspecified)
system.caches.delayHistogram::total          27935956                       # delay histogram for all message (Unspecified)
system.caches.m_outstandReqHistSeqr::bucket_size            2                       (Unspecified)
system.caches.m_outstandReqHistSeqr::max_bucket           19                       (Unspecified)
system.caches.m_outstandReqHistSeqr::samples    174755349                       (Unspecified)
system.caches.m_outstandReqHistSeqr::mean     3.506369                       (Unspecified)
system.caches.m_outstandReqHistSeqr::gmean     2.429629                       (Unspecified)
system.caches.m_outstandReqHistSeqr::stdev     3.389140                       (Unspecified)
system.caches.m_outstandReqHistSeqr      |    60164643     34.43%     34.43% |    59077726     33.81%     68.23% |    21553913     12.33%     80.57% |    11933838      6.83%     87.40% |     8264846      4.73%     92.13% |     5421529      3.10%     95.23% |     3559339      2.04%     97.27% |     2534960      1.45%     98.72% |     2244555      1.28%    100.00% |           0      0.00%    100.00% (Unspecified)
system.caches.m_outstandReqHistSeqr::total    174755349                       (Unspecified)
system.caches.m_latencyHistSeqr::bucket_size         1024                       (Unspecified)
system.caches.m_latencyHistSeqr::max_bucket        10239                       (Unspecified)
system.caches.m_latencyHistSeqr::samples    174777182                       (Unspecified)
system.caches.m_latencyHistSeqr::mean       15.885412                       (Unspecified)
system.caches.m_latencyHistSeqr::gmean       1.167897                       (Unspecified)
system.caches.m_latencyHistSeqr::stdev     116.077028                       (Unspecified)
system.caches.m_latencyHistSeqr          |   174269678     99.71%     99.71% |      455873      0.26%     99.97% |       50428      0.03%    100.00% |        1152      0.00%    100.00% |          48      0.00%    100.00% |           3      0.00%    100.00% |           0      0.00%    100.00% |           0      0.00%    100.00% |           0      0.00%    100.00% |           0      0.00%    100.00% (Unspecified)
system.caches.m_latencyHistSeqr::total      174777182                       (Unspecified)
system.caches.m_hitLatencyHistSeqr::bucket_size          512                       (Unspecified)
system.caches.m_hitLatencyHistSeqr::max_bucket         5119                       (Unspecified)
system.caches.m_hitLatencyHistSeqr::samples    169596917                       (Unspecified)
system.caches.m_hitLatencyHistSeqr::mean     1.002148                       (Unspecified)
system.caches.m_hitLatencyHistSeqr::gmean     1.000684                       (Unspecified)
system.caches.m_hitLatencyHistSeqr::stdev     1.101207                       (Unspecified)
system.caches.m_hitLatencyHistSeqr       |   169596734    100.00%    100.00% |         133      0.00%    100.00% |          36      0.00%    100.00% |           4      0.00%    100.00% |           5      0.00%    100.00% |           5      0.00%    100.00% |           0      0.00%    100.00% |           0      0.00%    100.00% |           0      0.00%    100.00% |           0      0.00%    100.00% (Unspecified)
system.caches.m_hitLatencyHistSeqr::total    169596917                       (Unspecified)
system.caches.m_missLatencyHistSeqr::bucket_size         1024                       (Unspecified)
system.caches.m_missLatencyHistSeqr::max_bucket        10239                       (Unspecified)
system.caches.m_missLatencyHistSeqr::samples      5180265                       (Unspecified)
system.caches.m_missLatencyHistSeqr::mean   503.149230                       (Unspecified)
system.caches.m_missLatencyHistSeqr::gmean   183.842604                       (Unspecified)
system.caches.m_missLatencyHistSeqr::stdev   458.124354                       (Unspecified)
system.caches.m_missLatencyHistSeqr      |     4672811     90.20%     90.20% |      455833      8.80%     99.00% |       50418      0.97%     99.98% |        1152      0.02%    100.00% |          48      0.00%    100.00% |           3      0.00%    100.00% |           0      0.00%    100.00% |           0      0.00%    100.00% |           0      0.00%    100.00% |           0      0.00%    100.00% (Unspecified)
system.caches.m_missLatencyHistSeqr::total      5180265                       (Unspecified)
system.caches.delayVCHist.vnet_0::bucket_size          512                       # delay histogram for vnet_0 (Unspecified)
system.caches.delayVCHist.vnet_0::max_bucket         5119                       # delay histogram for vnet_0 (Unspecified)
system.caches.delayVCHist.vnet_0::samples     12057227                       # delay histogram for vnet_0 (Unspecified)
system.caches.delayVCHist.vnet_0::mean       0.447356                       # delay histogram for vnet_0 (Unspecified)
system.caches.delayVCHist.vnet_0::stdev      3.123846                       # delay histogram for vnet_0 (Unspecified)
system.caches.delayVCHist.vnet_0         |    12057208    100.00%    100.00% |           6      0.00%    100.00% |           7      0.00%    100.00% |           1      0.00%    100.00% |           2      0.00%    100.00% |           1      0.00%    100.00% |           0      0.00%    100.00% |           1      0.00%    100.00% |           0      0.00%    100.00% |           1      0.00%    100.00% # delay histogram for vnet_0 (Unspecified)
system.caches.delayVCHist.vnet_0::total      12057227                       # delay histogram for vnet_0 (Unspecified)
system.caches.delayVCHist.vnet_1::bucket_size           16                       # delay histogram for vnet_1 (Unspecified)
system.caches.delayVCHist.vnet_1::max_bucket          159                       # delay histogram for vnet_1 (Unspecified)
system.caches.delayVCHist.vnet_1::samples     15620438                       # delay histogram for vnet_1 (Unspecified)
system.caches.delayVCHist.vnet_1::mean       0.171774                       # delay histogram for vnet_1 (Unspecified)
system.caches.delayVCHist.vnet_1::stdev      1.255194                       # delay histogram for vnet_1 (Unspecified)
system.caches.delayVCHist.vnet_1         |    15597453     99.85%     99.85% |       21865      0.14%     99.99% |        1006      0.01%    100.00% |          94      0.00%    100.00% |          18      0.00%    100.00% |           2      0.00%    100.00% |           0      0.00%    100.00% |           0      0.00%    100.00% |           0      0.00%    100.00% |           0      0.00%    100.00% # delay histogram for vnet_1 (Unspecified)
system.caches.delayVCHist.vnet_1::total      15620438                       # delay histogram for vnet_1 (Unspecified)
system.caches.delayVCHist.vnet_2::bucket_size            1                       # delay histogram for vnet_2 (Unspecified)
system.caches.delayVCHist.vnet_2::max_bucket            9                       # delay histogram for vnet_2 (Unspecified)
system.caches.delayVCHist.vnet_2::samples       258291                       # delay histogram for vnet_2 (Unspecified)
system.caches.delayVCHist.vnet_2::mean       0.000449                       # delay histogram for vnet_2 (Unspecified)
system.caches.delayVCHist.vnet_2::stdev      0.029967                       # delay histogram for vnet_2 (Unspecified)
system.caches.delayVCHist.vnet_2         |      258233     99.98%     99.98% |           0      0.00%     99.98% |          58      0.02%    100.00% |           0      0.00%    100.00% |           0      0.00%    100.00% |           0      0.00%    100.00% |           0      0.00%    100.00% |           0      0.00%    100.00% |           0      0.00%    100.00% |           0      0.00%    100.00% # delay histogram for vnet_2 (Unspecified)
system.caches.delayVCHist.vnet_2::total        258291                       # delay histogram for vnet_2 (Unspecified)
system.caches.L1Cache_Controller.Load    |    12276104     12.58%     12.58% |    12522158     12.83%     25.40% |    11619164     11.90%     37.30% |    12266795     12.57%     49.87% |    11792405     12.08%     61.95% |    12050764     12.34%     74.29% |    12386506     12.69%     86.98% |    12708987     13.02%    100.00% (Unspecified)
system.caches.L1Cache_Controller.Load::total     97622883                       (Unspecified)
system.caches.L1Cache_Controller.Ifetch  |     7909833     12.47%     12.47% |     7894879     12.45%     24.92% |     7952916     12.54%     37.47% |     7890474     12.44%     49.91% |     8015901     12.64%     62.55% |     7949494     12.54%     75.09% |     7901595     12.46%     87.55% |     7894672     12.45%    100.00% (Unspecified)
system.caches.L1Cache_Controller.Ifetch::total     63409764                       (Unspecified)
system.caches.L1Cache_Controller.Store   |     1677907     12.21%     12.21% |     1672748     12.17%     24.38% |     1897650     13.81%     38.18% |     1666678     12.13%     50.31% |     1782357     12.97%     63.28% |     1703404     12.39%     75.67% |     1672574     12.17%     87.84% |     1671230     12.16%    100.00% (Unspecified)
system.caches.L1Cache_Controller.Store::total     13744548                       (Unspecified)
system.caches.L1Cache_Controller.Inv     |       23949     11.41%     11.41% |       25718     12.26%     23.67% |       31500     15.01%     38.68% |       26790     12.77%     51.45% |       23474     11.19%     62.64% |       26869     12.80%     75.44% |       23163     11.04%     86.48% |       28373     13.52%    100.00% (Unspecified)
system.caches.L1Cache_Controller.Inv::total       209836                       (Unspecified)
system.caches.L1Cache_Controller.L1_Replacement |      632650     12.41%     12.41% |      629811     12.35%     24.76% |      665502     13.05%     37.81% |      631992     12.40%     50.21% |      633300     12.42%     62.63% |      642241     12.60%     75.22% |      631276     12.38%     87.61% |      631957     12.39%    100.00% (Unspecified)
system.caches.L1Cache_Controller.L1_Replacement::total      5098729                       (Unspecified)
system.caches.L1Cache_Controller.Fwd_GETX |         846     12.35%     12.35% |         858     12.53%     24.88% |         883     12.89%     37.77% |         853     12.45%     50.22% |         871     12.72%     62.93% |         846     12.35%     75.28% |         849     12.39%     87.68% |         844     12.32%    100.00% (Unspecified)
system.caches.L1Cache_Controller.Fwd_GETX::total         6850                       (Unspecified)
system.caches.L1Cache_Controller.Fwd_GETS |        5302     12.74%     12.74% |        5212     12.53%     25.27% |        7633     18.35%     43.62% |        4670     11.22%     54.84% |        4797     11.53%     66.37% |        5102     12.26%     78.63% |        4401     10.58%     89.21% |        4488     10.79%    100.00% (Unspecified)
system.caches.L1Cache_Controller.Fwd_GETS::total        41605                       (Unspecified)
system.caches.L1Cache_Controller.Data    |          82     68.91%     68.91% |           0      0.00%     68.91% |          19     15.97%     84.87% |           1      0.84%     85.71% |           0      0.00%     85.71% |          10      8.40%     94.12% |           2      1.68%     95.80% |           5      4.20%    100.00% (Unspecified)
system.caches.L1Cache_Controller.Data::total          119                       (Unspecified)
system.caches.L1Cache_Controller.Data_Exclusive |      391409     12.44%     12.44% |      391429     12.44%     24.89% |      396458     12.60%     37.49% |      391552     12.45%     49.94% |      391814     12.46%     62.40% |      401059     12.75%     75.15% |      391728     12.45%     87.60% |      390036     12.40%    100.00% (Unspecified)
system.caches.L1Cache_Controller.Data_Exclusive::total      3145485                       (Unspecified)
system.caches.L1Cache_Controller.DataS_fromL1 |        4957     11.91%     11.91% |        5996     14.41%     26.33% |        4886     11.74%     38.07% |        4851     11.66%     49.73% |        4878     11.72%     61.45% |        5547     13.33%     74.79% |        4365     10.49%     85.28% |        6125     14.72%    100.00% (Unspecified)
system.caches.L1Cache_Controller.DataS_fromL1::total        41605                       (Unspecified)
system.caches.L1Cache_Controller.Data_all_Acks |      243923     12.30%     12.30% |      242199     12.21%     24.51% |      274798     13.85%     38.36% |      243928     12.30%     50.65% |      246035     12.40%     63.06% |      244393     12.32%     75.38% |      243744     12.29%     87.66% |      244704     12.34%    100.00% (Unspecified)
system.caches.L1Cache_Controller.Data_all_Acks::total      1983724                       (Unspecified)
system.caches.L1Cache_Controller.Ack     |        2201     20.09%     20.09% |        1469     13.41%     33.49% |        1389     12.68%     46.17% |        1193     10.89%     57.06% |        1241     11.33%     68.39% |        1299     11.86%     80.24% |         833      7.60%     87.84% |        1332     12.16%    100.00% (Unspecified)
system.caches.L1Cache_Controller.Ack::total        10957                       (Unspecified)
system.caches.L1Cache_Controller.Ack_all |        1309     13.85%     13.85% |        1423     15.06%     28.91% |        1102     11.66%     40.57% |        1139     12.05%     52.62% |        1164     12.32%     64.93% |        1242     13.14%     78.08% |         798      8.44%     86.52% |        1274     13.48%    100.00% (Unspecified)
system.caches.L1Cache_Controller.Ack_all::total         9451                       (Unspecified)
system.caches.L1Cache_Controller.WB_Ack  |      420309     12.50%     12.50% |      414408     12.33%     24.83% |      440308     13.10%     37.93% |      414502     12.33%     50.26% |      417301     12.41%     62.67% |      424945     12.64%     75.31% |      417580     12.42%     87.73% |      412514     12.27%    100.00% (Unspecified)
system.caches.L1Cache_Controller.WB_Ack::total      3361867                       (Unspecified)
system.caches.L1Cache_Controller.NP.Load |      593793     12.43%     12.43% |      595140     12.46%     24.88% |      600669     12.57%     37.45% |      595893     12.47%     49.93% |      595704     12.47%     62.39% |      605570     12.67%     75.07% |      595399     12.46%     87.53% |      595909     12.47%    100.00% (Unspecified)
system.caches.L1Cache_Controller.NP.Load::total      4778077                       (Unspecified)
system.caches.L1Cache_Controller.NP.Ifetch |        3004     11.63%     11.63% |        1938      7.50%     19.13% |        7586     29.37%     48.50% |        2122      8.22%     56.72% |        4565     17.67%     74.39% |        1990      7.70%     82.10% |        2091      8.10%     90.19% |        2533      9.81%    100.00% (Unspecified)
system.caches.L1Cache_Controller.NP.Ifetch::total        25829                       (Unspecified)
system.caches.L1Cache_Controller.NP.Store |       36241     11.59%     11.59% |       35715     11.43%     23.02% |       61092     19.54%     42.56% |       35665     11.41%     53.97% |       35707     11.42%     65.40% |       36790     11.77%     77.17% |       35669     11.41%     88.58% |       35701     11.42%    100.00% (Unspecified)
system.caches.L1Cache_Controller.NP.Store::total       312580                       (Unspecified)
system.caches.L1Cache_Controller.NP.Inv  |        7535     12.61%     12.61% |        7146     11.96%     24.57% |        9133     15.29%     39.86% |        6745     11.29%     51.14% |        7088     11.86%     63.01% |        7728     12.93%     75.94% |        6579     11.01%     86.95% |        7797     13.05%    100.00% (Unspecified)
system.caches.L1Cache_Controller.NP.Inv::total        59751                       (Unspecified)
system.caches.L1Cache_Controller.I.Load  |        2661     12.75%     12.75% |        2745     13.15%     25.90% |        2574     12.33%     38.24% |        2560     12.27%     50.51% |        2519     12.07%     62.58% |        2607     12.49%     75.07% |        2627     12.59%     87.66% |        2576     12.34%    100.00% (Unspecified)
system.caches.L1Cache_Controller.I.Load::total        20869                       (Unspecified)
system.caches.L1Cache_Controller.I.Ifetch |        3932     14.29%     14.29% |        3342     12.15%     26.44% |        3419     12.43%     38.87% |        3335     12.12%     50.99% |        3442     12.51%     63.50% |        3309     12.03%     75.53% |        3319     12.06%     87.59% |        3413     12.41%    100.00% (Unspecified)
system.caches.L1Cache_Controller.I.Ifetch::total        27511                       (Unspecified)
system.caches.L1Cache_Controller.I.Store |         739     12.18%     12.18% |         742     12.23%     24.40% |         822     13.54%     37.95% |         756     12.46%     50.40% |         793     13.07%     63.47% |         743     12.24%     75.71% |         736     12.13%     87.84% |         738     12.16%    100.00% (Unspecified)
system.caches.L1Cache_Controller.I.Store::total         6069                       (Unspecified)
system.caches.L1Cache_Controller.I.L1_Replacement |        9617      9.66%      9.66% |       12243     12.29%     21.95% |       16024     16.09%     38.04% |       13883     13.94%     51.99% |       10112     10.15%     62.14% |       12980     13.04%     75.18% |       10401     10.45%     85.62% |       14318     14.38%    100.00% (Unspecified)
system.caches.L1Cache_Controller.I.L1_Replacement::total        99578                       (Unspecified)
system.caches.L1Cache_Controller.S.Load  |     7321754     12.70%     12.70% |     7808676     13.54%     26.24% |     6561990     11.38%     37.62% |     7315278     12.69%     50.30% |     6736341     11.68%     61.98% |     7039575     12.21%     74.19% |     7430230     12.88%     87.07% |     7454737     12.93%    100.00% (Unspecified)
system.caches.L1Cache_Controller.S.Load::total     57668581                       (Unspecified)
system.caches.L1Cache_Controller.S.Ifetch |     7902897     12.47%     12.47% |     7889599     12.45%     24.93% |     7941911     12.54%     37.46% |     7885017     12.45%     49.91% |     8007894     12.64%     62.55% |     7944195     12.54%     75.09% |     7896185     12.46%     87.55% |     7888726     12.45%    100.00% (Unspecified)
system.caches.L1Cache_Controller.S.Ifetch::total     63356424                       (Unspecified)
system.caches.L1Cache_Controller.S.Store |        1229     13.15%     13.15% |        1425     15.25%     28.41% |        1083     11.59%     40.00% |        1142     12.22%     52.22% |        1164     12.46%     64.68% |        1234     13.21%     77.89% |         797      8.53%     86.42% |        1269     13.58%    100.00% (Unspecified)
system.caches.L1Cache_Controller.S.Store::total         9343                       (Unspecified)
system.caches.L1Cache_Controller.S.Inv   |        8105     12.67%     12.67% |        7711     12.06%     24.73% |       10559     16.51%     41.24% |        7511     11.74%     52.98% |        7492     11.71%     64.69% |        7359     11.51%     76.20% |        7397     11.56%     87.76% |        7827     12.24%    100.00% (Unspecified)
system.caches.L1Cache_Controller.S.Inv::total        63961                       (Unspecified)
system.caches.L1Cache_Controller.S.L1_Replacement |      202724     12.38%     12.38% |      203160     12.41%     24.79% |      209170     12.78%     37.57% |      203607     12.44%     50.00% |      205887     12.57%     62.58% |      204316     12.48%     75.06% |      203295     12.42%     87.47% |      205125     12.53%    100.00% (Unspecified)
system.caches.L1Cache_Controller.S.L1_Replacement::total      1637284                       (Unspecified)
system.caches.L1Cache_Controller.E.Load  |     3682853     12.43%     12.43% |     3413913     11.52%     23.95% |     3756558     12.68%     36.63% |     3686211     12.44%     49.07% |     3707511     12.51%     61.58% |     3708951     12.52%     74.10% |     3685713     12.44%     86.54% |     3989146     13.46%    100.00% (Unspecified)
system.caches.L1Cache_Controller.E.Load::total     29630856                       (Unspecified)
system.caches.L1Cache_Controller.E.Store |       30689     12.09%     12.09% |       30141     11.87%     23.96% |       33545     13.21%     37.17% |       30144     11.87%     49.04% |       30337     11.95%     60.99% |       38464     15.15%     76.14% |       30582     12.05%     88.19% |       29990     11.81%    100.00% (Unspecified)
system.caches.L1Cache_Controller.E.Store::total       253892                       (Unspecified)
system.caches.L1Cache_Controller.E.Inv   |        7007      9.26%      9.26% |        9672     12.78%     22.04% |       10566     13.96%     35.99% |       11361     15.01%     51.00% |        8039     10.62%     61.62% |       10201     13.48%     75.10% |        7716     10.19%     85.30% |       11130     14.70%    100.00% (Unspecified)
system.caches.L1Cache_Controller.E.Inv::total        75692                       (Unspecified)
system.caches.L1Cache_Controller.E.L1_Replacement |      348532     12.42%     12.42% |      350368     12.48%     24.90% |      350262     12.48%     37.38% |      350281     12.48%     49.86% |      352723     12.57%     62.42% |      352274     12.55%     74.97% |      353608     12.60%     87.57% |      348879     12.43%    100.00% (Unspecified)
system.caches.L1Cache_Controller.E.L1_Replacement::total      2806927                       (Unspecified)
system.caches.L1Cache_Controller.E.Fwd_GETX |          10     12.82%     12.82% |          13     16.67%     29.49% |           2      2.56%     32.05% |          10     12.82%     44.87% |          10     12.82%     57.69% |          10     12.82%     70.51% |           9     11.54%     82.05% |          14     17.95%    100.00% (Unspecified)
system.caches.L1Cache_Controller.E.Fwd_GETX::total           78                       (Unspecified)
system.caches.L1Cache_Controller.E.Fwd_GETS |        3059     12.28%     12.28% |        3318     13.32%     25.59% |        3337     13.39%     38.99% |        3115     12.50%     51.49% |        3104     12.46%     63.94% |        3032     12.17%     76.11% |        2964     11.90%     88.01% |        2988     11.99%    100.00% (Unspecified)
system.caches.L1Cache_Controller.E.Fwd_GETS::total        24917                       (Unspecified)
system.caches.L1Cache_Controller.M.Load  |      675043     12.22%     12.22% |      701684     12.70%     24.92% |      697373     12.62%     37.54% |      666853     12.07%     49.61% |      750330     13.58%     63.20% |      694061     12.56%     75.76% |      672537     12.17%     87.93% |      666619     12.07%    100.00% (Unspecified)
system.caches.L1Cache_Controller.M.Load::total      5524500                       (Unspecified)
system.caches.L1Cache_Controller.M.Store |     1609009     12.22%     12.22% |     1604725     12.19%     24.42% |     1801108     13.68%     38.10% |     1598971     12.15%     50.25% |     1714356     13.02%     63.27% |     1626173     12.35%     75.63% |     1604790     12.19%     87.82% |     1603532     12.18%    100.00% (Unspecified)
system.caches.L1Cache_Controller.M.Store::total     13162664                       (Unspecified)
system.caches.L1Cache_Controller.M.Inv   |        1300     12.49%     12.49% |        1186     11.40%     23.89% |        1237     11.89%     35.78% |        1167     11.22%     47.00% |         853      8.20%     55.19% |        1577     15.16%     70.35% |        1468     14.11%     84.46% |        1617     15.54%    100.00% (Unspecified)
system.caches.L1Cache_Controller.M.Inv::total        10405                       (Unspecified)
system.caches.L1Cache_Controller.M.L1_Replacement |       71777     12.93%     12.93% |       64040     11.54%     24.47% |       90046     16.23%     40.70% |       64221     11.57%     52.27% |       64578     11.64%     63.91% |       72671     13.10%     77.01% |       63972     11.53%     88.53% |       63635     11.47%    100.00% (Unspecified)
system.caches.L1Cache_Controller.M.L1_Replacement::total       554940                       (Unspecified)
system.caches.L1Cache_Controller.M.Fwd_GETX |         836     12.34%     12.34% |         845     12.48%     24.82% |         881     13.01%     37.83% |         843     12.45%     50.28% |         861     12.71%     62.99% |         836     12.34%     75.34% |         840     12.40%     87.74% |         830     12.26%    100.00% (Unspecified)
system.caches.L1Cache_Controller.M.Fwd_GETX::total         6772                       (Unspecified)
system.caches.L1Cache_Controller.M.Fwd_GETS |        2243     13.44%     13.44% |        1894     11.35%     24.79% |        4296     25.74%     50.53% |        1555      9.32%     59.85% |        1693     10.15%     70.00% |        2070     12.40%     82.40% |        1437      8.61%     91.01% |        1500      8.99%    100.00% (Unspecified)
system.caches.L1Cache_Controller.M.Fwd_GETS::total        16688                       (Unspecified)
system.caches.L1Cache_Controller.IS.Inv  |           0      0.00%      0.00% |           0      0.00%      0.00% |           5     33.33%     33.33% |           2     13.33%     46.67% |           2     13.33%     60.00% |           2     13.33%     73.33% |           2     13.33%     86.67% |           2     13.33%    100.00% (Unspecified)
system.caches.L1Cache_Controller.IS.Inv::total           15                       (Unspecified)
system.caches.L1Cache_Controller.IS.Data_Exclusive |      391409     12.44%     12.44% |      391429     12.44%     24.89% |      396458     12.60%     37.49% |      391552     12.45%     49.94% |      391814     12.46%     62.40% |      401059     12.75%     75.15% |      391728     12.45%     87.60% |      390036     12.40%    100.00% (Unspecified)
system.caches.L1Cache_Controller.IS.Data_Exclusive::total      3145485                       (Unspecified)
system.caches.L1Cache_Controller.IS.DataS_fromL1 |        4957     11.91%     11.91% |        5996     14.41%     26.33% |        4886     11.74%     38.07% |        4851     11.66%     49.73% |        4878     11.72%     61.45% |        5547     13.33%     74.79% |        4365     10.49%     85.28% |        6125     14.72%    100.00% (Unspecified)
system.caches.L1Cache_Controller.IS.DataS_fromL1::total        41605                       (Unspecified)
system.caches.L1Cache_Controller.IS.Data_all_Acks |      207023     12.43%     12.43% |      205740     12.36%     24.79% |      212898     12.79%     37.57% |      207502     12.46%     50.03% |      209533     12.58%     62.62% |      206866     12.42%     75.04% |      207338     12.45%     87.49% |      208268     12.51%    100.00% (Unspecified)
system.caches.L1Cache_Controller.IS.Data_all_Acks::total      1665168                       (Unspecified)
system.caches.L1Cache_Controller.IM.Data |          82     68.91%     68.91% |           0      0.00%     68.91% |          19     15.97%     84.87% |           1      0.84%     85.71% |           0      0.00%     85.71% |          10      8.40%     94.12% |           2      1.68%     95.80% |           5      4.20%    100.00% (Unspecified)
system.caches.L1Cache_Controller.IM.Data::total          119                       (Unspecified)
system.caches.L1Cache_Controller.IM.Data_all_Acks |       36900     11.58%     11.58% |       36459     11.45%     23.03% |       61895     19.43%     42.46% |       36424     11.43%     53.90% |       36500     11.46%     65.35% |       37525     11.78%     77.13% |       36404     11.43%     88.56% |       36434     11.44%    100.00% (Unspecified)
system.caches.L1Cache_Controller.IM.Data_all_Acks::total       318541                       (Unspecified)
system.caches.L1Cache_Controller.SM.Inv  |           2     18.18%     18.18% |           2     18.18%     36.36% |           0      0.00%     36.36% |           4     36.36%     72.73% |           0      0.00%     72.73% |           2     18.18%     90.91% |           1      9.09%    100.00% |           0      0.00%    100.00% (Unspecified)
system.caches.L1Cache_Controller.SM.Inv::total           11                       (Unspecified)
system.caches.L1Cache_Controller.SM.Ack  |        2201     20.09%     20.09% |        1469     13.41%     33.49% |        1389     12.68%     46.17% |        1193     10.89%     57.06% |        1241     11.33%     68.39% |        1299     11.86%     80.24% |         833      7.60%     87.84% |        1332     12.16%    100.00% (Unspecified)
system.caches.L1Cache_Controller.SM.Ack::total        10957                       (Unspecified)
system.caches.L1Cache_Controller.SM.Ack_all |        1309     13.85%     13.85% |        1423     15.06%     28.91% |        1102     11.66%     40.57% |        1139     12.05%     52.62% |        1164     12.32%     64.93% |        1242     13.14%     78.08% |         798      8.44%     86.52% |        1274     13.48%    100.00% (Unspecified)
system.caches.L1Cache_Controller.SM.Ack_all::total         9451                       (Unspecified)
system.caches.L1Cache_Controller.IS_I.Data_all_Acks |           0      0.00%      0.00% |           0      0.00%      0.00% |           5     33.33%     33.33% |           2     13.33%     46.67% |           2     13.33%     60.00% |           2     13.33%     73.33% |           2     13.33%     86.67% |           2     13.33%    100.00% (Unspecified)
system.caches.L1Cache_Controller.IS_I.Data_all_Acks::total           15                       (Unspecified)
system.caches.L1Cache_Controller.M_I.Inv |           0      0.00%      0.00% |           1    100.00%    100.00% |           0      0.00%    100.00% |           0      0.00%    100.00% |           0      0.00%    100.00% |           0      0.00%    100.00% |           0      0.00%    100.00% |           0      0.00%    100.00% (Unspecified)
system.caches.L1Cache_Controller.M_I.Inv::total            1                       (Unspecified)
system.caches.L1Cache_Controller.M_I.WB_Ack |      420309     12.50%     12.50% |      414407     12.33%     24.83% |      440308     13.10%     37.93% |      414502     12.33%     50.26% |      417301     12.41%     62.67% |      424945     12.64%     75.31% |      417580     12.42%     87.73% |      412514     12.27%    100.00% (Unspecified)
system.caches.L1Cache_Controller.M_I.WB_Ack::total      3361866                       (Unspecified)
system.caches.L1Cache_Controller.SINK_WB_ACK.WB_Ack |           0      0.00%      0.00% |           1    100.00%    100.00% |           0      0.00%    100.00% |           0      0.00%    100.00% |           0      0.00%    100.00% |           0      0.00%    100.00% |           0      0.00%    100.00% |           0      0.00%    100.00% (Unspecified)
system.caches.L1Cache_Controller.SINK_WB_ACK.WB_Ack::total            1                       (Unspecified)
system.caches.Directory_Controller.Fetch |        7319      0.21%      0.21% |     3406120     99.79%    100.00% (Unspecified)
system.caches.Directory_Controller.Fetch::total      3413439                       (Unspecified)
system.caches.Directory_Controller.Data  |         201      0.03%      0.03% |      606798     99.97%    100.00% (Unspecified)
system.caches.Directory_Controller.Data::total       606999                       (Unspecified)
system.caches.Directory_Controller.Memory_Data |        7319      0.21%      0.21% |     3406107     99.79%    100.00% (Unspecified)
system.caches.Directory_Controller.Memory_Data::total      3413426                       (Unspecified)
system.caches.Directory_Controller.Memory_Ack |         201      0.03%      0.03% |      606798     99.97%    100.00% (Unspecified)
system.caches.Directory_Controller.Memory_Ack::total       606999                       (Unspecified)
system.caches.Directory_Controller.CleanReplacement |        7104      0.25%      0.25% |     2799336     99.75%    100.00% (Unspecified)
system.caches.Directory_Controller.CleanReplacement::total      2806440                       (Unspecified)
system.caches.Directory_Controller.I.Fetch |        7319      0.21%      0.21% |     3406120     99.79%    100.00% (Unspecified)
system.caches.Directory_Controller.I.Fetch::total      3413439                       (Unspecified)
system.caches.Directory_Controller.M.Data |         201      0.03%      0.03% |      606798     99.97%    100.00% (Unspecified)
system.caches.Directory_Controller.M.Data::total       606999                       (Unspecified)
system.caches.Directory_Controller.M.CleanReplacement |        7104      0.25%      0.25% |     2799336     99.75%    100.00% (Unspecified)
system.caches.Directory_Controller.M.CleanReplacement::total      2806440                       (Unspecified)
system.caches.Directory_Controller.IM.Memory_Data |        7319      0.21%      0.21% |     3406107     99.79%    100.00% (Unspecified)
system.caches.Directory_Controller.IM.Memory_Data::total      3413426                       (Unspecified)
system.caches.Directory_Controller.MI.Memory_Ack |         201      0.03%      0.03% |      606798     99.97%    100.00% (Unspecified)
system.caches.Directory_Controller.MI.Memory_Ack::total       606999                       (Unspecified)
system.caches.L2Cache_Controller.L1_GET_INSTR |        7676     14.36%     14.36% |        7599     14.22%     28.58% |        5828     10.90%     39.48% |        4830      9.04%     48.52% |        6657     12.46%     60.98% |        7003     13.10%     74.08% |        6822     12.76%     86.84% |        7031     13.16%    100.00% (Unspecified)
system.caches.L2Cache_Controller.L1_GET_INSTR::total        53446                       (Unspecified)
system.caches.L2Cache_Controller.L1_GETS |      610609     12.72%     12.72% |      597468     12.45%     25.17% |      598924     12.48%     37.65% |      593623     12.37%     50.02% |      596790     12.43%     62.45% |      601273     12.53%     74.98% |      597600     12.45%     87.43% |      603443     12.57%    100.00% (Unspecified)
system.caches.L2Cache_Controller.L1_GETS::total      4799730                       (Unspecified)
system.caches.L2Cache_Controller.L1_GETX |       39479     12.37%     12.37% |       44605     13.98%     26.36% |       38079     11.94%     38.29% |       38941     12.21%     50.50% |       38907     12.20%     62.69% |       40107     12.57%     75.27% |       39094     12.25%     87.52% |       39811     12.48%    100.00% (Unspecified)
system.caches.L2Cache_Controller.L1_GETX::total       319023                       (Unspecified)
system.caches.L2Cache_Controller.L1_UPGRADE |         685      7.31%      7.31% |         654      6.98%     14.29% |         680      7.26%     21.55% |         699      7.46%     29.01% |         729      7.78%     36.79% |         717      7.65%     44.44% |         859      9.17%     53.61% |        4346     46.39%    100.00% (Unspecified)
system.caches.L2Cache_Controller.L1_UPGRADE::total         9369                       (Unspecified)
system.caches.L2Cache_Controller.L1_PUTX |      416816     12.40%     12.40% |      421196     12.53%     24.93% |      419817     12.49%     37.41% |      420682     12.51%     49.93% |      421024     12.52%     62.45% |      421809     12.55%     75.00% |      420640     12.51%     87.51% |      419882     12.49%    100.00% (Unspecified)
system.caches.L2Cache_Controller.L1_PUTX::total      3361866                       (Unspecified)
system.caches.L2Cache_Controller.L1_PUTX_old |           0      0.00%      0.00% |           0      0.00%      0.00% |           0      0.00%      0.00% |           2    100.00%    100.00% |           0      0.00%    100.00% |           0      0.00%    100.00% |           0      0.00%    100.00% |           0      0.00%    100.00% (Unspecified)
system.caches.L2Cache_Controller.L1_PUTX_old::total            2                       (Unspecified)
system.caches.L2Cache_Controller.L2_Replacement |       74662     12.50%     12.50% |       74585     12.48%     24.98% |       74481     12.47%     37.45% |       74642     12.49%     49.94% |       74499     12.47%     62.41% |       75144     12.58%     74.99% |       74719     12.51%     87.49% |       74733     12.51%    100.00% (Unspecified)
system.caches.L2Cache_Controller.L2_Replacement::total       597465                       (Unspecified)
system.caches.L2Cache_Controller.L2_Replacement_clean |      352483     12.52%     12.52% |      352280     12.51%     25.03% |      351750     12.49%     37.52% |      352035     12.50%     50.02% |      352189     12.51%     62.53% |      351988     12.50%     75.03% |      351572     12.48%     87.51% |      351677     12.49%    100.00% (Unspecified)
system.caches.L2Cache_Controller.L2_Replacement_clean::total      2815974                       (Unspecified)
system.caches.L2Cache_Controller.Mem_Data |      427145     12.51%     12.51% |      426865     12.51%     25.02% |      426230     12.49%     37.51% |      426674     12.50%     50.01% |      426687     12.50%     62.51% |      427130     12.51%     75.02% |      426289     12.49%     87.51% |      426406     12.49%    100.00% (Unspecified)
system.caches.L2Cache_Controller.Mem_Data::total      3413426                       (Unspecified)
system.caches.L2Cache_Controller.Mem_Ack |      427145     12.51%     12.51% |      426865     12.51%     25.02% |      426231     12.49%     37.51% |      426677     12.50%     50.01% |      426688     12.50%     62.51% |      427132     12.51%     75.02% |      426291     12.49%     87.51% |      426410     12.49%    100.00% (Unspecified)
system.caches.L2Cache_Controller.Mem_Ack::total      3413439                       (Unspecified)
system.caches.L2Cache_Controller.WB_Data |        3178     11.73%     11.73% |        3003     11.08%     22.81% |        2806     10.36%     33.17% |        2851     10.52%     43.69% |        2935     10.83%     54.53% |        3102     11.45%     65.98% |        3070     11.33%     77.31% |        6148     22.69%    100.00% (Unspecified)
system.caches.L2Cache_Controller.WB_Data::total        27093                       (Unspecified)
system.caches.L2Cache_Controller.WB_Data_clean |        7354     29.51%     29.51% |        2225      8.93%     38.44% |        2279      9.15%     47.59% |        2147      8.62%     56.20% |        2165      8.69%     64.89% |        2205      8.85%     73.74% |        2246      9.01%     82.76% |        4297     17.24%    100.00% (Unspecified)
system.caches.L2Cache_Controller.WB_Data_clean::total        24918                       (Unspecified)
system.caches.L2Cache_Controller.Ack     |       15115     19.09%     19.09% |        8993     11.36%     30.45% |        8819     11.14%     41.59% |        7850      9.92%     51.51% |        8857     11.19%     62.70% |        9459     11.95%     74.65% |        9001     11.37%     86.02% |       11068     13.98%    100.00% (Unspecified)
system.caches.L2Cache_Controller.Ack::total        79162                       (Unspecified)
system.caches.L2Cache_Controller.Ack_all |       17562     16.08%     16.08% |       13081     11.98%     28.06% |       12866     11.78%     39.85% |       12909     11.82%     51.67% |       12983     11.89%     63.56% |       12930     11.84%     75.40% |       12812     11.73%     87.13% |       14049     12.87%    100.00% (Unspecified)
system.caches.L2Cache_Controller.Ack_all::total       109192                       (Unspecified)
system.caches.L2Cache_Controller.Unblock |        9069     21.80%     21.80% |        3846      9.24%     31.04% |        3926      9.44%     40.48% |        3805      9.15%     49.62% |        3893      9.36%     58.98% |        3928      9.44%     68.42% |        4088      9.83%     78.25% |        9050     21.75%    100.00% (Unspecified)
system.caches.L2Cache_Controller.Unblock::total        41605                       (Unspecified)
system.caches.L2Cache_Controller.Exclusive_Unblock |      433687     12.49%     12.49% |      438713     12.63%     25.12% |      431533     12.42%     37.54% |      432886     12.46%     50.00% |      432854     12.46%     62.46% |      434190     12.50%     74.96% |      432652     12.46%     87.42% |      436962     12.58%    100.00% (Unspecified)
system.caches.L2Cache_Controller.Exclusive_Unblock::total      3473477                       (Unspecified)
system.caches.L2Cache_Controller.NP.L1_GET_INSTR |        1113     13.22%     13.22% |        1111     13.19%     26.41% |        1010     11.99%     38.40% |         958     11.37%     49.77% |        1065     12.65%     62.42% |        1075     12.76%     75.18% |         979     11.62%     86.81% |        1111     13.19%    100.00% (Unspecified)
system.caches.L2Cache_Controller.NP.L1_GET_INSTR::total         8422                       (Unspecified)
system.caches.L2Cache_Controller.NP.L1_GETS |      388564     12.50%     12.50% |      388541     12.50%     25.01% |      388354     12.50%     37.51% |      388700     12.51%     50.02% |      388509     12.50%     62.52% |      388658     12.51%     75.03% |      388138     12.49%     87.52% |      387901     12.48%    100.00% (Unspecified)
system.caches.L2Cache_Controller.NP.L1_GETS::total      3107365                       (Unspecified)
system.caches.L2Cache_Controller.NP.L1_GETX |       37468     12.59%     12.59% |       37213     12.50%     25.09% |       36867     12.39%     37.48% |       37019     12.44%     49.91% |       37114     12.47%     62.38% |       37399     12.56%     74.95% |       37174     12.49%     87.44% |       37398     12.56%    100.00% (Unspecified)
system.caches.L2Cache_Controller.NP.L1_GETX::total       297652                       (Unspecified)
system.caches.L2Cache_Controller.NP.L1_PUTX_old |           0      0.00%      0.00% |           0      0.00%      0.00% |           0      0.00%      0.00% |           1    100.00%    100.00% |           0      0.00%    100.00% |           0      0.00%    100.00% |           0      0.00%    100.00% |           0      0.00%    100.00% (Unspecified)
system.caches.L2Cache_Controller.NP.L1_PUTX_old::total            1                       (Unspecified)
system.caches.L2Cache_Controller.SS.L1_GET_INSTR |        5778     14.79%     14.79% |        5765     14.76%     29.55% |        4192     10.73%     40.29% |        3212      8.22%     48.51% |        4725     12.10%     60.61% |        5160     13.21%     73.82% |        5077     13.00%     86.81% |        5150     13.19%    100.00% (Unspecified)
system.caches.L2Cache_Controller.SS.L1_GET_INSTR::total        39059                       (Unspecified)
system.caches.L2Cache_Controller.SS.L1_GETS |      207379     12.88%     12.88% |      199815     12.41%     25.29% |      201848     12.54%     37.83% |      196226     12.19%     50.02% |      199397     12.39%     62.41% |      203518     12.64%     75.05% |      200375     12.45%     87.50% |      201300     12.50%    100.00% (Unspecified)
system.caches.L2Cache_Controller.SS.L1_GETS::total      1609858                       (Unspecified)
system.caches.L2Cache_Controller.SS.L1_GETX |          43     36.13%     36.13% |           1      0.84%     36.97% |           4      3.36%     40.34% |           2      1.68%     42.02% |          11      9.24%     51.26% |           4      3.36%     54.62% |          40     33.61%     88.24% |          14     11.76%    100.00% (Unspecified)
system.caches.L2Cache_Controller.SS.L1_GETX::total          119                       (Unspecified)
system.caches.L2Cache_Controller.SS.L1_UPGRADE |         685      7.34%      7.34% |         654      7.01%     14.35% |         680      7.29%     21.64% |         699      7.49%     29.13% |         729      7.81%     36.94% |         715      7.66%     44.60% |         827      8.86%     53.46% |        4343     46.54%    100.00% (Unspecified)
system.caches.L2Cache_Controller.SS.L1_UPGRADE::total         9332                       (Unspecified)
system.caches.L2Cache_Controller.SS.L2_Replacement |         422     12.52%     12.52% |         415     12.31%     24.83% |         409     12.13%     36.96% |         411     12.19%     49.15% |         426     12.64%     61.79% |         412     12.22%     74.01% |         436     12.93%     86.95% |         440     13.05%    100.00% (Unspecified)
system.caches.L2Cache_Controller.SS.L2_Replacement::total         3371                       (Unspecified)
system.caches.L2Cache_Controller.SS.L2_Replacement_clean |        8075     26.80%     26.80% |        2985      9.91%     36.71% |        2949      9.79%     46.50% |        2740      9.09%     55.59% |        2869      9.52%     65.11% |        2989      9.92%     75.03% |        2836      9.41%     84.45% |        4686     15.55%    100.00% (Unspecified)
system.caches.L2Cache_Controller.SS.L2_Replacement_clean::total        30129                       (Unspecified)
system.caches.L2Cache_Controller.M.L1_GET_INSTR |           0      0.00%      0.00% |           2     25.00%     25.00% |           1     12.50%     37.50% |           0      0.00%     37.50% |           0      0.00%     37.50% |           1     12.50%     50.00% |           2     25.00%     75.00% |           2     25.00%    100.00% (Unspecified)
system.caches.L2Cache_Controller.M.L1_GET_INSTR::total            8                       (Unspecified)
system.caches.L2Cache_Controller.M.L1_GETS |        5096     13.18%     13.18% |        5122     13.25%     26.42% |        4499     11.63%     38.06% |        4621     11.95%     50.01% |        4742     12.26%     62.27% |        4858     12.56%     74.83% |        4733     12.24%     87.07% |        5000     12.93%    100.00% (Unspecified)
system.caches.L2Cache_Controller.M.L1_GETS::total        38671                       (Unspecified)
system.caches.L2Cache_Controller.M.L1_GETX |        1895     13.50%     13.50% |        1678     11.95%     25.45% |        1200      8.55%     34.00% |        1567     11.16%     45.16% |        1764     12.56%     57.72% |        2192     15.61%     73.34% |        1738     12.38%     85.72% |        2005     14.28%    100.00% (Unspecified)
system.caches.L2Cache_Controller.M.L1_GETX::total        14039                       (Unspecified)
system.caches.L2Cache_Controller.M.L2_Replacement |       74094     12.49%     12.49% |       74066     12.49%     24.98% |       74023     12.48%     37.46% |       74118     12.50%     49.96% |       73986     12.47%     62.43% |       74551     12.57%     75.00% |       74185     12.51%     87.51% |       74109     12.49%    100.00% (Unspecified)
system.caches.L2Cache_Controller.M.L2_Replacement::total       593132                       (Unspecified)
system.caches.L2Cache_Controller.M.L2_Replacement_clean |      334026     12.37%     12.37% |      338336     12.53%     24.90% |      338183     12.52%     37.42% |      338457     12.53%     49.95% |      338512     12.53%     62.48% |      338272     12.53%     75.01% |      338066     12.52%     87.53% |      336857     12.47%    100.00% (Unspecified)
system.caches.L2Cache_Controller.M.L2_Replacement_clean::total      2700709                       (Unspecified)
system.caches.L2Cache_Controller.MT.L1_GETS |        9069     21.80%     21.80% |        3846      9.24%     31.04% |        3926      9.44%     40.48% |        3805      9.15%     49.62% |        3893      9.36%     58.98% |        3928      9.44%     68.42% |        4088      9.83%     78.25% |        9050     21.75%    100.00% (Unspecified)
system.caches.L2Cache_Controller.MT.L1_GETS::total        41605                       (Unspecified)
system.caches.L2Cache_Controller.MT.L1_GETX |          54      0.79%      0.79% |        5560     81.17%     81.96% |           8      0.12%     82.07% |         353      5.15%     87.23% |          18      0.26%     87.49% |         448      6.54%     94.03% |          55      0.80%     94.83% |         354      5.17%    100.00% (Unspecified)
system.caches.L2Cache_Controller.MT.L1_GETX::total         6850                       (Unspecified)
system.caches.L2Cache_Controller.MT.L1_PUTX |      416816     12.40%     12.40% |      421196     12.53%     24.93% |      419817     12.49%     37.41% |      420682     12.51%     49.93% |      421024     12.52%     62.45% |      421809     12.55%     75.00% |      420640     12.51%     87.51% |      419882     12.49%    100.00% (Unspecified)
system.caches.L2Cache_Controller.MT.L1_PUTX::total      3361866                       (Unspecified)
system.caches.L2Cache_Controller.MT.L2_Replacement |         146     15.18%     15.18% |         104     10.81%     25.99% |          49      5.09%     31.08% |         113     11.75%     42.83% |          87      9.04%     51.87% |         181     18.81%     70.69% |          98     10.19%     80.87% |         184     19.13%    100.00% (Unspecified)
system.caches.L2Cache_Controller.MT.L2_Replacement::total          962                       (Unspecified)
system.caches.L2Cache_Controller.MT.L2_Replacement_clean |       10382     12.19%     12.19% |       10959     12.87%     25.07% |       10618     12.47%     37.54% |       10838     12.73%     50.27% |       10808     12.69%     62.96% |       10727     12.60%     75.56% |       10670     12.53%     88.10% |       10134     11.90%    100.00% (Unspecified)
system.caches.L2Cache_Controller.MT.L2_Replacement_clean::total        85136                       (Unspecified)
system.caches.L2Cache_Controller.M_I.L1_GET_INSTR |          10      9.43%      9.43% |           0      0.00%      9.43% |           0      0.00%      9.43% |          12     11.32%     20.75% |          21     19.81%     40.57% |           0      0.00%     40.57% |          28     26.42%     66.98% |          35     33.02%    100.00% (Unspecified)
system.caches.L2Cache_Controller.M_I.L1_GET_INSTR::total          106                       (Unspecified)
system.caches.L2Cache_Controller.M_I.L1_GETS |          14     20.59%     20.59% |           2      2.94%     23.53% |           8     11.76%     35.29% |          24     35.29%     70.59% |           0      0.00%     70.59% |          17     25.00%     95.59% |           1      1.47%     97.06% |           2      2.94%    100.00% (Unspecified)
system.caches.L2Cache_Controller.M_I.L1_GETS::total           68                       (Unspecified)
system.caches.L2Cache_Controller.M_I.L1_GETX |          18     62.07%     62.07% |           9     31.03%     93.10% |           0      0.00%     93.10% |           0      0.00%     93.10% |           0      0.00%     93.10% |           2      6.90%    100.00% |           0      0.00%    100.00% |           0      0.00%    100.00% (Unspecified)
system.caches.L2Cache_Controller.M_I.L1_GETX::total           29                       (Unspecified)
system.caches.L2Cache_Controller.M_I.Mem_Ack |      427145     12.51%     12.51% |      426865     12.51%     25.02% |      426231     12.49%     37.51% |      426677     12.50%     50.01% |      426688     12.50%     62.51% |      427132     12.51%     75.02% |      426291     12.49%     87.51% |      426410     12.49%    100.00% (Unspecified)
system.caches.L2Cache_Controller.M_I.Mem_Ack::total      3413439                       (Unspecified)
system.caches.L2Cache_Controller.MT_I.WB_Data |         132     15.15%     15.15% |          94     10.79%     25.95% |          44      5.05%     31.00% |          99     11.37%     42.37% |          71      8.15%     50.52% |         168     19.29%     69.80% |          89     10.22%     80.02% |         174     19.98%    100.00% (Unspecified)
system.caches.L2Cache_Controller.MT_I.WB_Data::total          871                       (Unspecified)
system.caches.L2Cache_Controller.MT_I.Ack_all |          14     15.38%     15.38% |          10     10.99%     26.37% |           5      5.49%     31.87% |          14     15.38%     47.25% |          16     17.58%     64.84% |          13     14.29%     79.12% |           9      9.89%     89.01% |          10     10.99%    100.00% (Unspecified)
system.caches.L2Cache_Controller.MT_I.Ack_all::total           91                       (Unspecified)
system.caches.L2Cache_Controller.MCT_I.L1_PUTX_old |           0      0.00%      0.00% |           0      0.00%      0.00% |           0      0.00%      0.00% |           1    100.00%    100.00% |           0      0.00%    100.00% |           0      0.00%    100.00% |           0      0.00%    100.00% |           0      0.00%    100.00% (Unspecified)
system.caches.L2Cache_Controller.MCT_I.L1_PUTX_old::total            1                       (Unspecified)
system.caches.L2Cache_Controller.MCT_I.WB_Data |        1331     13.96%     13.96% |        1288     13.51%     27.47% |        1115     11.69%     39.17% |        1093     11.46%     50.63% |        1136     11.92%     62.54% |        1211     12.70%     75.25% |        1139     11.95%     87.19% |        1221     12.81%    100.00% (Unspecified)
system.caches.L2Cache_Controller.MCT_I.WB_Data::total         9534                       (Unspecified)
system.caches.L2Cache_Controller.MCT_I.WB_Data_clean |           0      0.00%      0.00% |           0      0.00%      0.00% |           0      0.00%      0.00% |           1    100.00%    100.00% |           0      0.00%    100.00% |           0      0.00%    100.00% |           0      0.00%    100.00% |           0      0.00%    100.00% (Unspecified)
system.caches.L2Cache_Controller.MCT_I.WB_Data_clean::total            1                       (Unspecified)
system.caches.L2Cache_Controller.MCT_I.Ack_all |        9051     11.97%     11.97% |        9671     12.79%     24.76% |        9503     12.57%     37.33% |        9744     12.89%     50.22% |        9672     12.79%     63.02% |        9516     12.59%     75.60% |        9531     12.61%     88.21% |        8913     11.79%    100.00% (Unspecified)
system.caches.L2Cache_Controller.MCT_I.Ack_all::total        75601                       (Unspecified)
system.caches.L2Cache_Controller.I_I.L1_GETS |           0      0.00%      0.00% |           0      0.00%      0.00% |           0      0.00%      0.00% |           2    100.00%    100.00% |           0      0.00%    100.00% |           0      0.00%    100.00% |           0      0.00%    100.00% |           0      0.00%    100.00% (Unspecified)
system.caches.L2Cache_Controller.I_I.L1_GETS::total            2                       (Unspecified)
system.caches.L2Cache_Controller.I_I.Ack |       14128     19.65%     19.65% |        8064     11.22%     30.87% |        7942     11.05%     41.91% |        6936      9.65%     51.56% |        8066     11.22%     62.78% |        8603     11.97%     74.75% |        7990     11.11%     85.86% |       10165     14.14%    100.00% (Unspecified)
system.caches.L2Cache_Controller.I_I.Ack::total        71894                       (Unspecified)
system.caches.L2Cache_Controller.I_I.Ack_all |        8075     26.80%     26.80% |        2985      9.91%     36.71% |        2949      9.79%     46.50% |        2740      9.09%     55.59% |        2869      9.52%     65.11% |        2989      9.92%     75.03% |        2836      9.41%     84.45% |        4686     15.55%    100.00% (Unspecified)
system.caches.L2Cache_Controller.I_I.Ack_all::total        30129                       (Unspecified)
system.caches.L2Cache_Controller.S_I.Ack |         987     13.58%     13.58% |         929     12.78%     26.36% |         877     12.07%     38.43% |         914     12.58%     51.00% |         791     10.88%     61.89% |         856     11.78%     73.67% |        1011     13.91%     87.58% |         903     12.42%    100.00% (Unspecified)
system.caches.L2Cache_Controller.S_I.Ack::total         7268                       (Unspecified)
system.caches.L2Cache_Controller.S_I.Ack_all |         422     12.52%     12.52% |         415     12.31%     24.83% |         409     12.13%     36.96% |         411     12.19%     49.15% |         426     12.64%     61.79% |         412     12.22%     74.01% |         436     12.93%     86.95% |         440     13.05%    100.00% (Unspecified)
system.caches.L2Cache_Controller.S_I.Ack_all::total         3371                       (Unspecified)
system.caches.L2Cache_Controller.ISS.L1_GETS |         118     21.93%     21.93% |          56     10.41%     32.34% |          78     14.50%     46.84% |          72     13.38%     60.22% |          32      5.95%     66.17% |          82     15.24%     81.41% |          51      9.48%     90.89% |          49      9.11%    100.00% (Unspecified)
system.caches.L2Cache_Controller.ISS.L1_GETS::total          538                       (Unspecified)
system.caches.L2Cache_Controller.ISS.Mem_Data |      388446     12.50%     12.50% |      388485     12.50%     25.01% |      388275     12.50%     37.50% |      388625     12.51%     50.01% |      388476     12.50%     62.52% |      388574     12.51%     75.02% |      388085     12.49%     87.52% |      387848     12.48%    100.00% (Unspecified)
system.caches.L2Cache_Controller.ISS.Mem_Data::total      3106814                       (Unspecified)
system.caches.L2Cache_Controller.IS.L1_GET_INSTR |         775     13.25%     13.25% |         721     12.32%     25.57% |         625     10.68%     36.25% |         648     11.08%     47.33% |         846     14.46%     61.78% |         767     13.11%     74.89% |         736     12.58%     87.47% |         733     12.53%    100.00% (Unspecified)
system.caches.L2Cache_Controller.IS.L1_GET_INSTR::total         5851                       (Unspecified)
system.caches.L2Cache_Controller.IS.L1_GETS |         253     27.83%     27.83% |          72      7.92%     35.75% |         163     17.93%     53.69% |         146     16.06%     69.75% |          24      2.64%     72.39% |         170     18.70%     91.09% |          30      3.30%     94.39% |          51      5.61%    100.00% (Unspecified)
system.caches.L2Cache_Controller.IS.L1_GETS::total          909                       (Unspecified)
system.caches.L2Cache_Controller.IS.Mem_Data |        1231     13.74%     13.74% |        1167     13.02%     26.76% |        1088     12.14%     38.91% |        1030     11.50%     50.40% |        1097     12.24%     62.65% |        1157     12.91%     75.56% |        1030     11.50%     87.05% |        1160     12.95%    100.00% (Unspecified)
system.caches.L2Cache_Controller.IS.Mem_Data::total         8960                       (Unspecified)
system.caches.L2Cache_Controller.IM.L1_GETX |           1      4.55%      4.55% |          18     81.82%     86.36% |           0      0.00%     86.36% |           0      0.00%     86.36% |           0      0.00%     86.36% |           1      4.55%     90.91% |           0      0.00%     90.91% |           2      9.09%    100.00% (Unspecified)
system.caches.L2Cache_Controller.IM.L1_GETX::total           22                       (Unspecified)
system.caches.L2Cache_Controller.IM.Mem_Data |       37468     12.59%     12.59% |       37213     12.50%     25.09% |       36867     12.39%     37.48% |       37019     12.44%     49.91% |       37114     12.47%     62.38% |       37399     12.56%     74.95% |       37174     12.49%     87.44% |       37398     12.56%    100.00% (Unspecified)
system.caches.L2Cache_Controller.IM.Mem_Data::total       297652                       (Unspecified)
system.caches.L2Cache_Controller.SS_MB.L1_GETS |          49     16.39%     16.39% |           0      0.00%     16.39% |           0      0.00%     16.39% |           0      0.00%     16.39% |          97     32.44%     48.83% |           6      2.01%     50.84% |         110     36.79%     87.63% |          37     12.37%    100.00% (Unspecified)
system.caches.L2Cache_Controller.SS_MB.L1_GETS::total          299                       (Unspecified)
system.caches.L2Cache_Controller.SS_MB.L1_GETX |           0      0.00%      0.00% |           0      0.00%      0.00% |           0      0.00%      0.00% |           0      0.00%      0.00% |           0      0.00%      0.00% |           0      0.00%      0.00% |          23    100.00%    100.00% |           0      0.00%    100.00% (Unspecified)
system.caches.L2Cache_Controller.SS_MB.L1_GETX::total           23                       (Unspecified)
system.caches.L2Cache_Controller.SS_MB.L1_UPGRADE |           0      0.00%      0.00% |           0      0.00%      0.00% |           0      0.00%      0.00% |           0      0.00%      0.00% |           0      0.00%      0.00% |           2     18.18%     18.18% |           6     54.55%     72.73% |           3     27.27%    100.00% (Unspecified)
system.caches.L2Cache_Controller.SS_MB.L1_UPGRADE::total           11                       (Unspecified)
system.caches.L2Cache_Controller.SS_MB.Exclusive_Unblock |         728      7.70%      7.70% |         655      6.93%     14.63% |         684      7.24%     21.87% |         701      7.42%     29.29% |         740      7.83%     37.12% |         719      7.61%     44.73% |         867      9.17%     53.90% |        4357     46.10%    100.00% (Unspecified)
system.caches.L2Cache_Controller.SS_MB.Exclusive_Unblock::total         9451                       (Unspecified)
system.caches.L2Cache_Controller.MT_MB.L1_GETS |           1      4.35%      4.35% |           0      0.00%      4.35% |           1      4.35%      8.70% |           6     26.09%     34.78% |           1      4.35%     39.13% |           4     17.39%     56.52% |           5     21.74%     78.26% |           5     21.74%    100.00% (Unspecified)
system.caches.L2Cache_Controller.MT_MB.L1_GETS::total           23                       (Unspecified)
system.caches.L2Cache_Controller.MT_MB.L1_GETX |           0      0.00%      0.00% |         126     44.37%     44.37% |           0      0.00%     44.37% |           0      0.00%     44.37% |           0      0.00%     44.37% |          60     21.13%     65.49% |          61     21.48%     86.97% |          37     13.03%    100.00% (Unspecified)
system.caches.L2Cache_Controller.MT_MB.L1_GETX::total          284                       (Unspecified)
system.caches.L2Cache_Controller.MT_MB.Exclusive_Unblock |      432959     12.50%     12.50% |      438058     12.65%     25.14% |      430849     12.44%     37.58% |      432185     12.48%     50.06% |      432114     12.47%     62.53% |      433471     12.51%     75.05% |      431785     12.46%     87.51% |      432605     12.49%    100.00% (Unspecified)
system.caches.L2Cache_Controller.MT_MB.Exclusive_Unblock::total      3464026                       (Unspecified)
system.caches.L2Cache_Controller.MT_IIB.L1_GETS |          64     17.25%     17.25% |          10      2.70%     19.95% |          46     12.40%     32.35% |          20      5.39%     37.74% |          92     24.80%     62.53% |          28      7.55%     70.08% |          64     17.25%     87.33% |          47     12.67%    100.00% (Unspecified)
system.caches.L2Cache_Controller.MT_IIB.L1_GETS::total          371                       (Unspecified)
system.caches.L2Cache_Controller.MT_IIB.L1_GETX |           0      0.00%      0.00% |           0      0.00%      0.00% |           0      0.00%      0.00% |           0      0.00%      0.00% |           0      0.00%      0.00% |           1     33.33%     33.33% |           2     66.67%    100.00% |           0      0.00%    100.00% (Unspecified)
system.caches.L2Cache_Controller.MT_IIB.L1_GETX::total            3                       (Unspecified)
system.caches.L2Cache_Controller.MT_IIB.WB_Data |        1715     10.31%     10.31% |        1620      9.74%     20.05% |        1647      9.90%     29.95% |        1634      9.82%     39.77% |        1705     10.25%     50.02% |        1722     10.35%     60.37% |        1841     11.07%     71.43% |        4753     28.57%    100.00% (Unspecified)
system.caches.L2Cache_Controller.MT_IIB.WB_Data::total        16637                       (Unspecified)
system.caches.L2Cache_Controller.MT_IIB.WB_Data_clean |        7352     29.51%     29.51% |        2225      8.93%     38.44% |        2279      9.15%     47.59% |        2146      8.61%     56.20% |        2164      8.69%     64.89% |        2205      8.85%     73.74% |        2246      9.02%     82.75% |        4297     17.25%    100.00% (Unspecified)
system.caches.L2Cache_Controller.MT_IIB.WB_Data_clean::total        24914                       (Unspecified)
system.caches.L2Cache_Controller.MT_IIB.Unblock |           2      3.70%      3.70% |           1      1.85%      5.56% |           0      0.00%      5.56% |          25     46.30%     51.85% |          24     44.44%     96.30% |           1      1.85%     98.15% |           1      1.85%    100.00% |           0      0.00%    100.00% (Unspecified)
system.caches.L2Cache_Controller.MT_IIB.Unblock::total           54                       (Unspecified)
system.caches.L2Cache_Controller.MT_IB.WB_Data |           0      0.00%      0.00% |           1      1.96%      1.96% |           0      0.00%      1.96% |          25     49.02%     50.98% |          23     45.10%     96.08% |           1      1.96%     98.04% |           1      1.96%    100.00% |           0      0.00%    100.00% (Unspecified)
system.caches.L2Cache_Controller.MT_IB.WB_Data::total           51                       (Unspecified)
system.caches.L2Cache_Controller.MT_IB.WB_Data_clean |           2     66.67%     66.67% |           0      0.00%     66.67% |           0      0.00%     66.67% |           0      0.00%     66.67% |           1     33.33%    100.00% |           0      0.00%    100.00% |           0      0.00%    100.00% |           0      0.00%    100.00% (Unspecified)
system.caches.L2Cache_Controller.MT_IB.WB_Data_clean::total            3                       (Unspecified)
system.caches.L2Cache_Controller.MT_SB.L1_GETS |           2      9.52%      9.52% |           4     19.05%     28.57% |           1      4.76%     33.33% |           1      4.76%     38.10% |           3     14.29%     52.38% |           4     19.05%     71.43% |           5     23.81%     95.24% |           1      4.76%    100.00% (Unspecified)
system.caches.L2Cache_Controller.MT_SB.L1_GETS::total           21                       (Unspecified)
system.caches.L2Cache_Controller.MT_SB.L1_GETX |           0      0.00%      0.00% |           0      0.00%      0.00% |           0      0.00%      0.00% |           0      0.00%      0.00% |           0      0.00%      0.00% |           0      0.00%      0.00% |           1     50.00%     50.00% |           1     50.00%    100.00% (Unspecified)
system.caches.L2Cache_Controller.MT_SB.L1_GETX::total            2                       (Unspecified)
system.caches.L2Cache_Controller.MT_SB.L1_UPGRADE |           0      0.00%      0.00% |           0      0.00%      0.00% |           0      0.00%      0.00% |           0      0.00%      0.00% |           0      0.00%      0.00% |           0      0.00%      0.00% |          26    100.00%    100.00% |           0      0.00%    100.00% (Unspecified)
system.caches.L2Cache_Controller.MT_SB.L1_UPGRADE::total           26                       (Unspecified)
system.caches.L2Cache_Controller.MT_SB.Unblock |        9067     21.82%     21.82% |        3845      9.25%     31.08% |        3926      9.45%     40.52% |        3780      9.10%     49.62% |        3869      9.31%     58.93% |        3927      9.45%     68.38% |        4087      9.84%     78.22% |        9050     21.78%    100.00% (Unspecified)
system.caches.L2Cache_Controller.MT_SB.Unblock::total        41551                       (Unspecified)
system.caches.RequestType.LD.latency_hist_seqr::bucket_size         1024                       (Unspecified)
system.caches.RequestType.LD.latency_hist_seqr::max_bucket        10239                       (Unspecified)
system.caches.RequestType.LD.latency_hist_seqr::samples     97622870                       (Unspecified)
system.caches.RequestType.LD.latency_hist_seqr::mean    25.234569                       (Unspecified)
system.caches.RequestType.LD.latency_hist_seqr::gmean     1.290152                       (Unspecified)
system.caches.RequestType.LD.latency_hist_seqr::stdev   147.014194                       (Unspecified)
system.caches.RequestType.LD.latency_hist_seqr |    97167799     99.53%     99.53% |      409465      0.42%     99.95% |       44574      0.05%    100.00% |         983      0.00%    100.00% |          46      0.00%    100.00% |           3      0.00%    100.00% |           0      0.00%    100.00% |           0      0.00%    100.00% |           0      0.00%    100.00% |           0      0.00%    100.00% (Unspecified)
system.caches.RequestType.LD.latency_hist_seqr::total     97622870                       (Unspecified)
system.caches.RequestType.LD.hit_latency_hist_seqr::bucket_size            1                       (Unspecified)
system.caches.RequestType.LD.hit_latency_hist_seqr::max_bucket            9                       (Unspecified)
system.caches.RequestType.LD.hit_latency_hist_seqr::samples     92823937                       (Unspecified)
system.caches.RequestType.LD.hit_latency_hist_seqr::mean     1.001212                       (Unspecified)
system.caches.RequestType.LD.hit_latency_hist_seqr::gmean     1.000840                       (Unspecified)
system.caches.RequestType.LD.hit_latency_hist_seqr::stdev     0.034792                       (Unspecified)
system.caches.RequestType.LD.hit_latency_hist_seqr |           0      0.00%      0.00% |    92711444     99.88%     99.88% |      112491      0.12%    100.00% |           2      0.00%    100.00% |           0      0.00%    100.00% |           0      0.00%    100.00% |           0      0.00%    100.00% |           0      0.00%    100.00% |           0      0.00%    100.00% |           0      0.00%    100.00% (Unspecified)
system.caches.RequestType.LD.hit_latency_hist_seqr::total     92823937                       (Unspecified)
system.caches.RequestType.LD.miss_latency_hist_seqr::bucket_size         1024                       (Unspecified)
system.caches.RequestType.LD.miss_latency_hist_seqr::max_bucket        10239                       (Unspecified)
system.caches.RequestType.LD.miss_latency_hist_seqr::samples      4798933                       (Unspecified)
system.caches.RequestType.LD.miss_latency_hist_seqr::mean   493.971175                       (Unspecified)
system.caches.RequestType.LD.miss_latency_hist_seqr::gmean   175.254866                       (Unspecified)
system.caches.RequestType.LD.miss_latency_hist_seqr::stdev   456.722582                       (Unspecified)
system.caches.RequestType.LD.miss_latency_hist_seqr |     4343862     90.52%     90.52% |      409465      8.53%     99.05% |       44574      0.93%     99.98% |         983      0.02%    100.00% |          46      0.00%    100.00% |           3      0.00%    100.00% |           0      0.00%    100.00% |           0      0.00%    100.00% |           0      0.00%    100.00% |           0      0.00%    100.00% (Unspecified)
system.caches.RequestType.LD.miss_latency_hist_seqr::total      4798933                       (Unspecified)
system.caches.RequestType.ST.latency_hist_seqr::bucket_size          512                       (Unspecified)
system.caches.RequestType.ST.latency_hist_seqr::max_bucket         5119                       (Unspecified)
system.caches.RequestType.ST.latency_hist_seqr::samples      8866066                       (Unspecified)
system.caches.RequestType.ST.latency_hist_seqr::mean    26.007371                       (Unspecified)
system.caches.RequestType.ST.latency_hist_seqr::gmean     1.245095                       (Unspecified)
system.caches.RequestType.ST.latency_hist_seqr::stdev   154.153216                       (Unspecified)
system.caches.RequestType.ST.latency_hist_seqr |     8633222     97.37%     97.37% |      182444      2.06%     99.43% |       34863      0.39%     99.82% |        9662      0.11%     99.93% |        4337      0.05%     99.98% |        1370      0.02%    100.00% |         149      0.00%    100.00% |          17      0.00%    100.00% |           2      0.00%    100.00% |           0      0.00%    100.00% (Unspecified)
system.caches.RequestType.ST.latency_hist_seqr::total      8866066                       (Unspecified)
system.caches.RequestType.ST.hit_latency_hist_seqr::bucket_size          512                       (Unspecified)
system.caches.RequestType.ST.hit_latency_hist_seqr::max_bucket         5119                       (Unspecified)
system.caches.RequestType.ST.hit_latency_hist_seqr::samples      8564726                       (Unspecified)
system.caches.RequestType.ST.hit_latency_hist_seqr::mean     1.011659                       (Unspecified)
system.caches.RequestType.ST.hit_latency_hist_seqr::gmean     1.003041                       (Unspecified)
system.caches.RequestType.ST.hit_latency_hist_seqr::stdev     2.685726                       (Unspecified)
system.caches.RequestType.ST.hit_latency_hist_seqr |     8564668    100.00%    100.00% |          42      0.00%    100.00% |          13      0.00%    100.00% |           1      0.00%    100.00% |           1      0.00%    100.00% |           1      0.00%    100.00% |           0      0.00%    100.00% |           0      0.00%    100.00% |           0      0.00%    100.00% |           0      0.00%    100.00% (Unspecified)
system.caches.RequestType.ST.hit_latency_hist_seqr::total      8564726                       (Unspecified)
system.caches.RequestType.ST.miss_latency_hist_seqr::bucket_size          512                       (Unspecified)
system.caches.RequestType.ST.miss_latency_hist_seqr::max_bucket         5119                       (Unspecified)
system.caches.RequestType.ST.miss_latency_hist_seqr::samples       301340                       (Unspecified)
system.caches.RequestType.ST.miss_latency_hist_seqr::mean   736.438846                       (Unspecified)
system.caches.RequestType.ST.miss_latency_hist_seqr::gmean   580.200712                       (Unspecified)
system.caches.RequestType.ST.miss_latency_hist_seqr::stdev   420.106358                       (Unspecified)
system.caches.RequestType.ST.miss_latency_hist_seqr |       68554     22.75%     22.75% |      182402     60.53%     83.28% |       34850     11.57%     94.85% |        9661      3.21%     98.05% |        4336      1.44%     99.49% |        1369      0.45%     99.94% |         149      0.05%     99.99% |          17      0.01%    100.00% |           2      0.00%    100.00% |           0      0.00%    100.00% (Unspecified)
system.caches.RequestType.ST.miss_latency_hist_seqr::total       301340                       (Unspecified)
system.caches.RequestType.IFETCH.latency_hist_seqr::bucket_size          512                       (Unspecified)
system.caches.RequestType.IFETCH.latency_hist_seqr::max_bucket         5119                       (Unspecified)
system.caches.RequestType.IFETCH.latency_hist_seqr::samples     63409764                       (Unspecified)
system.caches.RequestType.IFETCH.latency_hist_seqr::mean     1.080465                       (Unspecified)
system.caches.RequestType.IFETCH.latency_hist_seqr::gmean     1.002869                       (Unspecified)
system.caches.RequestType.IFETCH.latency_hist_seqr::stdev     5.836673                       (Unspecified)
system.caches.RequestType.IFETCH.latency_hist_seqr |    63408442    100.00%    100.00% |        1015      0.00%    100.00% |         214      0.00%    100.00% |          86      0.00%    100.00% |           6      0.00%    100.00% |           1      0.00%    100.00% |           0      0.00%    100.00% |           0      0.00%    100.00% |           0      0.00%    100.00% |           0      0.00%    100.00% (Unspecified)
system.caches.RequestType.IFETCH.latency_hist_seqr::total     63409764                       (Unspecified)
system.caches.RequestType.IFETCH.hit_latency_hist_seqr::bucket_size            1                       (Unspecified)
system.caches.RequestType.IFETCH.hit_latency_hist_seqr::max_bucket            9                       (Unspecified)
system.caches.RequestType.IFETCH.hit_latency_hist_seqr::samples     63356424                       (Unspecified)
system.caches.RequestType.IFETCH.hit_latency_hist_seqr::mean     1.000000                       (Unspecified)
system.caches.RequestType.IFETCH.hit_latency_hist_seqr::gmean     1.000000                       (Unspecified)
system.caches.RequestType.IFETCH.hit_latency_hist_seqr::stdev     0.000562                       (Unspecified)
system.caches.RequestType.IFETCH.hit_latency_hist_seqr |           0      0.00%      0.00% |    63356404    100.00%    100.00% |          20      0.00%    100.00% |           0      0.00%    100.00% |           0      0.00%    100.00% |           0      0.00%    100.00% |           0      0.00%    100.00% |           0      0.00%    100.00% |           0      0.00%    100.00% |           0      0.00%    100.00% (Unspecified)
system.caches.RequestType.IFETCH.hit_latency_hist_seqr::total     63356424                       (Unspecified)
system.caches.RequestType.IFETCH.miss_latency_hist_seqr::bucket_size          512                       (Unspecified)
system.caches.RequestType.IFETCH.miss_latency_hist_seqr::max_bucket         5119                       (Unspecified)
[...]
system.o3Cpu7.iew.predictedTakenIncorrect       553313                       # Number of branches that were predicted taken incorrectly (Count)
system.o3Cpu7.iew.predictedNotTakenIncorrect       684857                       # Number of branches that were predicted not taken incorrectly (Count)
system.o3Cpu7.iew.branchMispredicts           1238170                       # Number of branch mispredicts detected at execute (Count)
system.o3Cpu7.iew.instsToCommit             118403917                       # Cumulative count of insts sent to commit (Count)
system.o3Cpu7.iew.writebackCount            117965748                       # Cumulative count of insts written-back (Count)
system.o3Cpu7.iew.producerInst               92811787                       # Number of instructions producing a value (Count)
system.o3Cpu7.iew.consumerInst              138749361                       # Number of instructions consuming a value (Count)
system.o3Cpu7.iew.wbRate                     0.574712                       # Insts written-back per cycle ((Count/Cycle))
system.o3Cpu7.iew.wbFanout                   0.668917                       # Average fanout of values written-back ((Count/Count))
system.o3Cpu7.interrupts.clk_domain.clock         3200                       # Clock period in ticks (Tick)
system.o3Cpu7.lsq0.forwLoads                    61763                       # Number of loads that had data forwarded from stores (Count)
system.o3Cpu7.lsq0.squashedLoads              8963488                       # Number of loads squashed (Count)
system.o3Cpu7.lsq0.ignoredResponses               916                       # Number of memory responses ignored because the instruction is squashed (Count)
system.o3Cpu7.lsq0.memOrderViolation              842                       # Number of memory ordering violations (Count)
system.o3Cpu7.lsq0.squashedStores             1538698                       # Number of stores squashed (Count)
system.o3Cpu7.lsq0.rescheduledLoads                43                       # Number of loads that were rescheduled (Count)
system.o3Cpu7.lsq0.blockedByCache              158510                       # Number of times an access to memory failed due to the cache being blocked (Count)
system.o3Cpu7.lsq0.loadToUse::samples         9941364                       # Distribution of cycle latency between the first time a load is issued and its completion (Unspecified)
system.o3Cpu7.lsq0.loadToUse::mean          80.438014                       # Distribution of cycle latency between the first time a load is issued and its completion (Unspecified)
system.o3Cpu7.lsq0.loadToUse::stdev        237.157017                       # Distribution of cycle latency between the first time a load is issued and its completion (Unspecified)
system.o3Cpu7.lsq0.loadToUse::0-9             8382169     84.32%     84.32% # Distribution of cycle latency between the first time a load is issued and its completion (Unspecified)
system.o3Cpu7.lsq0.loadToUse::10-19            209530      2.11%     86.42% # Distribution of cycle latency between the first time a load is issued and its completion (Unspecified)
system.o3Cpu7.lsq0.loadToUse::20-29             94217      0.95%     87.37% # Distribution of cycle latency between the first time a load is issued and its completion (Unspecified)
system.o3Cpu7.lsq0.loadToUse::30-39             31707      0.32%     87.69% # Distribution of cycle latency between the first time a load is issued and its completion (Unspecified)
system.o3Cpu7.lsq0.loadToUse::40-49             12606      0.13%     87.82% # Distribution of cycle latency between the first time a load is issued and its completion (Unspecified)
system.o3Cpu7.lsq0.loadToUse::50-59              5130      0.05%     87.87% # Distribution of cycle latency between the first time a load is issued and its completion (Unspecified)
system.o3Cpu7.lsq0.loadToUse::60-69              2661      0.03%     87.90% # Distribution of cycle latency between the first time a load is issued and its completion (Unspecified)
system.o3Cpu7.lsq0.loadToUse::70-79              2389      0.02%     87.92% # Distribution of cycle latency between the first time a load is issued and its completion (Unspecified)
system.o3Cpu7.lsq0.loadToUse::80-89              2035      0.02%     87.94% # Distribution of cycle latency between the first time a load is issued and its completion (Unspecified)
system.o3Cpu7.lsq0.loadToUse::90-99              1801      0.02%     87.96% # Distribution of cycle latency between the first time a load is issued and its completion (Unspecified)
system.o3Cpu7.lsq0.loadToUse::100-109            1565      0.02%     87.97% # Distribution of cycle latency between the first time a load is issued and its completion (Unspecified)
system.o3Cpu7.lsq0.loadToUse::110-119            1564      0.02%     87.99% # Distribution of cycle latency between the first time a load is issued and its completion (Unspecified)
system.o3Cpu7.lsq0.loadToUse::120-129            1672      0.02%     88.01% # Distribution of cycle latency between the first time a load is issued and its completion (Unspecified)
system.o3Cpu7.lsq0.loadToUse::130-139            1804      0.02%     88.02% # Distribution of cycle latency between the first time a load is issued and its completion (Unspecified)
system.o3Cpu7.lsq0.loadToUse::140-149            2065      0.02%     88.05% # Distribution of cycle latency between the first time a load is issued and its completion (Unspecified)
system.o3Cpu7.lsq0.loadToUse::150-159            2082      0.02%     88.07% # Distribution of cycle latency between the first time a load is issued and its completion (Unspecified)
system.o3Cpu7.lsq0.loadToUse::160-169            2497      0.03%     88.09% # Distribution of cycle latency between the first time a load is issued and its completion (Unspecified)
system.o3Cpu7.lsq0.loadToUse::170-179            2674      0.03%     88.12% # Distribution of cycle latency between the first time a load is issued and its completion (Unspecified)
system.o3Cpu7.lsq0.loadToUse::180-189            2999      0.03%     88.15% # Distribution of cycle latency between the first time a load is issued and its completion (Unspecified)
system.o3Cpu7.lsq0.loadToUse::190-199            3167      0.03%     88.18% # Distribution of cycle latency between the first time a load is issued and its completion (Unspecified)
system.o3Cpu7.lsq0.loadToUse::200-209            3223      0.03%     88.21% # Distribution of cycle latency between the first time a load is issued and its completion (Unspecified)
system.o3Cpu7.lsq0.loadToUse::210-219            3169      0.03%     88.24% # Distribution of cycle latency between the first time a load is issued and its completion (Unspecified)
system.o3Cpu7.lsq0.loadToUse::220-229            2995      0.03%     88.27% # Distribution of cycle latency between the first time a load is issued and its completion (Unspecified)
system.o3Cpu7.lsq0.loadToUse::230-239            2911      0.03%     88.30% # Distribution of cycle latency between the first time a load is issued and its completion (Unspecified)
system.o3Cpu7.lsq0.loadToUse::240-249            2656      0.03%     88.33% # Distribution of cycle latency between the first time a load is issued and its completion (Unspecified)
system.o3Cpu7.lsq0.loadToUse::250-259            2624      0.03%     88.36% # Distribution of cycle latency between the first time a load is issued and its completion (Unspecified)
system.o3Cpu7.lsq0.loadToUse::260-269            2335      0.02%     88.38% # Distribution of cycle latency between the first time a load is issued and its completion (Unspecified)
system.o3Cpu7.lsq0.loadToUse::270-279            2263      0.02%     88.40% # Distribution of cycle latency between the first time a load is issued and its completion (Unspecified)
system.o3Cpu7.lsq0.loadToUse::280-289            2303      0.02%     88.43% # Distribution of cycle latency between the first time a load is issued and its completion (Unspecified)
system.o3Cpu7.lsq0.loadToUse::290-299            2183      0.02%     88.45% # Distribution of cycle latency between the first time a load is issued and its completion (Unspecified)
system.o3Cpu7.lsq0.loadToUse::overflows       1148368     11.55%    100.00% # Distribution of cycle latency between the first time a load is issued and its completion (Unspecified)
system.o3Cpu7.lsq0.loadToUse::min_value             2                       # Distribution of cycle latency between the first time a load is issued and its completion (Unspecified)
system.o3Cpu7.lsq0.loadToUse::max_value          5232                       # Distribution of cycle latency between the first time a load is issued and its completion (Unspecified)
system.o3Cpu7.lsq0.loadToUse::total           9941364                       # Distribution of cycle latency between the first time a load is issued and its completion (Unspecified)
system.o3Cpu7.mmu.dtb.rdAccesses             16634318                       # TLB accesses on read requests (Count)
system.o3Cpu7.mmu.dtb.wrAccesses              1731101                       # TLB accesses on write requests (Count)
system.o3Cpu7.mmu.dtb.rdMisses                 467072                       # TLB misses on read requests (Count)
system.o3Cpu7.mmu.dtb.wrMisses                   1180                       # TLB misses on write requests (Count)
system.o3Cpu7.mmu.dtb.walker.power_state.pwrStateResidencyTicks::UNDEFINED  44140173399                       # Cumulative time (in ticks) in various power states (Tick)
system.o3Cpu7.mmu.itb.rdAccesses                    0                       # TLB accesses on read requests (Count)
system.o3Cpu7.mmu.itb.wrAccesses              7896766                       # TLB accesses on write requests (Count)
system.o3Cpu7.mmu.itb.rdMisses                      0                       # TLB misses on read requests (Count)
system.o3Cpu7.mmu.itb.wrMisses                    333                       # TLB misses on write requests (Count)
system.o3Cpu7.mmu.itb.walker.power_state.pwrStateResidencyTicks::UNDEFINED  44140173399                       # Cumulative time (in ticks) in various power states (Tick)
system.o3Cpu7.power_state.numTransitions            8                       # Number of power state transitions (Count)
system.o3Cpu7.power_state.ticksClkGated::samples            4                       # Distribution of time spent in the clock gated state (Tick)
system.o3Cpu7.power_state.ticksClkGated::mean    518897450                       # Distribution of time spent in the clock gated state (Tick)
system.o3Cpu7.power_state.ticksClkGated::stdev 329585269.707305                       # Distribution of time spent in the clock gated state (Tick)
system.o3Cpu7.power_state.ticksClkGated::1000-5e+10            4    100.00%    100.00% # Distribution of time spent in the clock gated state (Tick)
system.o3Cpu7.power_state.ticksClkGated::min_value     97002000                       # Distribution of time spent in the clock gated state (Tick)
system.o3Cpu7.power_state.ticksClkGated::max_value    884519200                       # Distribution of time spent in the clock gated state (Tick)
system.o3Cpu7.power_state.ticksClkGated::total            4                       # Distribution of time spent in the clock gated state (Tick)
system.o3Cpu7.power_state.pwrStateResidencyTicks::ON  35650664600                       # Cumulative time (in ticks) in various power states (Tick)
system.o3Cpu7.power_state.pwrStateResidencyTicks::CLK_GATED   2075589800                       # Cumulative time (in ticks) in various power states (Tick)
system.o3Cpu7.power_state.pwrStateResidencyTicks::OFF   6413918999                       # Cumulative time (in ticks) in various power states (Tick)
system.o3Cpu7.rename.squashCycles             1075575                       # Number of cycles rename is squashing (Cycle)
system.o3Cpu7.rename.idleCycles              15538829                       # Number of cycles rename is idle (Cycle)
system.o3Cpu7.rename.blockCycles            122275165                       # Number of cycles rename is blocking (Cycle)
system.o3Cpu7.rename.serializeStallCycles       315418                       # count of cycles rename stalled for serializing inst (Cycle)
system.o3Cpu7.rename.runCycles               20874099                       # Number of cycles rename is running (Cycle)
system.o3Cpu7.rename.unblockCycles            5837596                       # Number of cycles rename is unblocking (Cycle)
system.o3Cpu7.rename.renamedInsts           147566081                       # Number of instructions processed by rename (Count)
system.o3Cpu7.rename.ROBFullEvents            1315764                       # Number of times rename has blocked due to ROB full (Count)
system.o3Cpu7.rename.IQFullEvents             1555823                       # Number of times rename has blocked due to IQ full (Count)
system.o3Cpu7.rename.LQFullEvents             2841075                       # Number of times rename has blocked due to LQ full (Count)
system.o3Cpu7.rename.SQFullEvents              528071                       # Number of times rename has blocked due to SQ full (Count)
system.o3Cpu7.rename.renamedOperands        319208869                       # Number of destination operands rename has renamed (Count)
system.o3Cpu7.rename.lookups                547095838                       # Number of register rename lookups that rename has made (Count)
system.o3Cpu7.rename.intLookups             180668154                       # Number of integer rename lookups (Count)
system.o3Cpu7.rename.fpLookups                  22683                       # Number of floating rename lookups (Count)
system.o3Cpu7.rename.committedMaps          163550328                       # Number of HB maps that are committed (Count)
system.o3Cpu7.rename.undoneMaps             155658442                       # Number of HB maps that are undone due to squashing (Count)
system.o3Cpu7.rename.serializing                 2560                       # count of serializing insts renamed (Count)
system.o3Cpu7.rename.tempSerializing             2662                       # count of temporary serializing insts renamed (Count)
system.o3Cpu7.rename.skidInsts                8864291                       # count of insts added to the skid buffer (Count)
system.o3Cpu7.rob.reads                     291596463                       # The number of ROB reads (Count)
system.o3Cpu7.rob.writes                    285019581                       # The number of ROB writes (Count)
system.o3Cpu7.thread_0.numInsts              45971119                       # Number of Instructions committed (Count)
system.o3Cpu7.thread_0.numOps                77137133                       # Number of Ops committed (Count)
system.o3Cpu7.thread_0.numMemRefs                   0                       # Number of Memory References (Count)
system.pc.bad_addr.power_state.pwrStateResidencyTicks::UNDEFINED  44140173399                       # Cumulative time (in ticks) in various power states (Tick)
system.pc.com_1.power_state.pwrStateResidencyTicks::UNDEFINED  44140173399                       # Cumulative time (in ticks) in various power states (Tick)
system.pc.default_bus.power_state.pwrStateResidencyTicks::UNDEFINED  44140173399                       # Cumulative time (in ticks) in various power states (Tick)
system.pc.empty_isa.power_state.pwrStateResidencyTicks::UNDEFINED  44140173399                       # Cumulative time (in ticks) in various power states (Tick)
system.pc.fake_com_2.power_state.pwrStateResidencyTicks::UNDEFINED  44140173399                       # Cumulative time (in ticks) in various power states (Tick)
system.pc.fake_com_3.power_state.pwrStateResidencyTicks::UNDEFINED  44140173399                       # Cumulative time (in ticks) in various power states (Tick)
system.pc.fake_com_4.power_state.pwrStateResidencyTicks::UNDEFINED  44140173399                       # Cumulative time (in ticks) in various power states (Tick)
system.pc.fake_floppy.power_state.pwrStateResidencyTicks::UNDEFINED  44140173399                       # Cumulative time (in ticks) in various power states (Tick)
system.pc.pci_host.power_state.pwrStateResidencyTicks::UNDEFINED  44140173399                       # Cumulative time (in ticks) in various power states (Tick)
system.pc.south_bridge.cmos.power_state.pwrStateResidencyTicks::UNDEFINED  44140173399                       # Cumulative time (in ticks) in various power states (Tick)
system.pc.south_bridge.dma1.power_state.pwrStateResidencyTicks::UNDEFINED  44140173399                       # Cumulative time (in ticks) in various power states (Tick)
system.pc.south_bridge.ide.disks0.IdeDisk.dmaReadFullPages            0                       # Number of full page size DMA reads (not PRD). (Count)
system.pc.south_bridge.ide.disks0.IdeDisk.dmaReadBytes            0                       # Number of bytes transfered via DMA reads (not PRD). (Byte)
system.pc.south_bridge.ide.disks0.IdeDisk.dmaReadTxs            0                       # Number of DMA read transactions (not PRD). (Count)
system.pc.south_bridge.ide.disks0.IdeDisk.dmaWriteFullPages            0                       # Number of full page size DMA writes. (Count)
system.pc.south_bridge.ide.disks0.IdeDisk.dmaWriteBytes            0                       # Number of bytes transfered via DMA writes. (Byte)
system.pc.south_bridge.ide.disks0.IdeDisk.dmaWriteTxs            0                       # Number of DMA write transactions. (Count)
system.pc.south_bridge.ide.disks1.IdeDisk.dmaReadFullPages            0                       # Number of full page size DMA reads (not PRD). (Count)
system.pc.south_bridge.ide.disks1.IdeDisk.dmaReadBytes            0                       # Number of bytes transfered via DMA reads (not PRD). (Byte)
system.pc.south_bridge.ide.disks1.IdeDisk.dmaReadTxs            0                       # Number of DMA read transactions (not PRD). (Count)
system.pc.south_bridge.ide.disks1.IdeDisk.dmaWriteFullPages            0                       # Number of full page size DMA writes. (Count)
system.pc.south_bridge.ide.disks1.IdeDisk.dmaWriteBytes            0                       # Number of bytes transfered via DMA writes. (Byte)
system.pc.south_bridge.ide.disks1.IdeDisk.dmaWriteTxs            0                       # Number of DMA write transactions. (Count)
system.pc.south_bridge.ide.power_state.pwrStateResidencyTicks::UNDEFINED  44140173399                       # Cumulative time (in ticks) in various power states (Tick)
system.pc.south_bridge.io_apic.power_state.pwrStateResidencyTicks::UNDEFINED  44140173399                       # Cumulative time (in ticks) in various power states (Tick)
system.pc.south_bridge.keyboard.power_state.pwrStateResidencyTicks::UNDEFINED  44140173399                       # Cumulative time (in ticks) in various power states (Tick)
system.pc.south_bridge.pic1.power_state.pwrStateResidencyTicks::UNDEFINED  44140173399                       # Cumulative time (in ticks) in various power states (Tick)
system.pc.south_bridge.pic2.power_state.pwrStateResidencyTicks::UNDEFINED  44140173399                       # Cumulative time (in ticks) in various power states (Tick)
system.pc.south_bridge.pit.power_state.pwrStateResidencyTicks::UNDEFINED  44140173399                       # Cumulative time (in ticks) in various power states (Tick)
system.pc.south_bridge.speaker.power_state.pwrStateResidencyTicks::UNDEFINED  44140173399                       # Cumulative time (in ticks) in various power states (Tick)
system.workload.inst.arm                            0                       # number of arm instructions executed (Count)
system.workload.inst.quiesce                        0                       # number of quiesce instructions executed (Count)

---------- End Simulation Statistics   ----------
