
---------- Begin Simulation Statistics ----------
simSeconds                                   0.047184                       # Number of seconds simulated (Second)
simTicks                                  47183545100                       # Number of ticks simulated (Tick)
finalTick                                163555185263800                       # Number of ticks from beginning of simulation (restored from checkpoints and never reset) (Tick)
simFreq                                  1000000000000                       # The number of ticks per simulated second ((Tick/Second))
hostSeconds                                  10241.80                       # Real time elapsed on the host (Second)
hostTickRate                                  4606958                       # The number of ticks simulated per host second (ticks/s) ((Tick/Second))
hostMemory                                   19946076                       # Number of bytes of host memory used (Byte)
simInsts                                    301941204                       # Number of instructions simulated (Count)
simOps                                      502911026                       # Number of ops (including micro ops) simulated (Count)
hostInstRate                                    29481                       # Simulator instruction rate (inst/s) ((Count/Second))
hostOpRate                                      49104                       # Simulator op (including micro ops) rate (op/s) ((Count/Second))
system.caches.delayHistogram::bucket_size          512                       # delay histogram for all message (Unspecified)
system.caches.delayHistogram::max_bucket         5119                       # delay histogram for all message (Unspecified)
system.caches.delayHistogram::samples        46655788                       # delay histogram for all message (Unspecified)
system.caches.delayHistogram::mean           0.554008                       # delay histogram for all message (Unspecified)
system.caches.delayHistogram::stdev          2.473138                       # delay histogram for all message (Unspecified)
system.caches.delayHistogram             |    46655766    100.00%    100.00% |          10      0.00%    100.00% |           5      0.00%    100.00% |           3      0.00%    100.00% |           2      0.00%    100.00% |           0      0.00%    100.00% |           1      0.00%    100.00% |           0      0.00%    100.00% |           1      0.00%    100.00% |           0      0.00%    100.00% # delay histogram for all message (Unspecified)
system.caches.delayHistogram::total          46655788                       # delay histogram for all message (Unspecified)
system.caches.m_outstandReqHistSeqr::bucket_size            2                       (Unspecified)
system.caches.m_outstandReqHistSeqr::max_bucket           19                       (Unspecified)
system.caches.m_outstandReqHistSeqr::samples    152898199                       (Unspecified)
system.caches.m_outstandReqHistSeqr::mean     3.449853                       (Unspecified)
system.caches.m_outstandReqHistSeqr::gmean     2.116476                       (Unspecified)
system.caches.m_outstandReqHistSeqr::stdev     4.057819                       (Unspecified)
system.caches.m_outstandReqHistSeqr      |    74985423     49.04%     49.04% |    39085429     25.56%     74.61% |    10800695      7.06%     81.67% |     5701831      3.73%     85.40% |     4526155      2.96%     88.36% |     3916598      2.56%     90.92% |     6497138      4.25%     95.17% |     2997909      1.96%     97.13% |     4387021      2.87%    100.00% |           0      0.00%    100.00% (Unspecified)
system.caches.m_outstandReqHistSeqr::total    152898199                       (Unspecified)
system.caches.m_latencyHistSeqr::bucket_size         1024                       (Unspecified)
system.caches.m_latencyHistSeqr::max_bucket        10239                       (Unspecified)
system.caches.m_latencyHistSeqr::samples    153474421                       (Unspecified)
system.caches.m_latencyHistSeqr::mean       27.362769                       (Unspecified)
system.caches.m_latencyHistSeqr::gmean       1.322722                       (Unspecified)
system.caches.m_latencyHistSeqr::stdev     144.250303                       (Unspecified)
system.caches.m_latencyHistSeqr          |   152982376     99.68%     99.68% |      387148      0.25%     99.93% |       97821      0.06%    100.00% |        6808      0.00%    100.00% |         258      0.00%    100.00% |          10      0.00%    100.00% |           0      0.00%    100.00% |           0      0.00%    100.00% |           0      0.00%    100.00% |           0      0.00%    100.00% (Unspecified)
system.caches.m_latencyHistSeqr::total      153474421                       (Unspecified)
system.caches.m_hitLatencyHistSeqr::bucket_size          512                       (Unspecified)
system.caches.m_hitLatencyHistSeqr::max_bucket         5119                       (Unspecified)
system.caches.m_hitLatencyHistSeqr::samples    146753991                       (Unspecified)
system.caches.m_hitLatencyHistSeqr::mean     1.012609                       (Unspecified)
system.caches.m_hitLatencyHistSeqr::gmean     1.006370                       (Unspecified)
system.caches.m_hitLatencyHistSeqr::stdev     1.991558                       (Unspecified)
system.caches.m_hitLatencyHistSeqr       |   146753646    100.00%    100.00% |         197      0.00%    100.00% |          51      0.00%    100.00% |          86      0.00%    100.00% |           9      0.00%    100.00% |           0      0.00%    100.00% |           1      0.00%    100.00% |           1      0.00%    100.00% |           0      0.00%    100.00% |           0      0.00%    100.00% (Unspecified)
system.caches.m_hitLatencyHistSeqr::total    146753991                       (Unspecified)
system.caches.m_missLatencyHistSeqr::bucket_size         1024                       (Unspecified)
system.caches.m_missLatencyHistSeqr::max_bucket        10239                       (Unspecified)
system.caches.m_missLatencyHistSeqr::samples      6720430                       (Unspecified)
system.caches.m_missLatencyHistSeqr::mean   602.771064                       (Unspecified)
system.caches.m_missLatencyHistSeqr::gmean   517.323371                       (Unspecified)
system.caches.m_missLatencyHistSeqr::stdev   358.959882                       (Unspecified)
system.caches.m_missLatencyHistSeqr      |     6228533     92.68%     92.68% |      387011      5.76%     98.44% |       97812      1.46%     99.89% |        6806      0.10%    100.00% |         258      0.00%    100.00% |          10      0.00%    100.00% |           0      0.00%    100.00% |           0      0.00%    100.00% |           0      0.00%    100.00% |           0      0.00%    100.00% (Unspecified)
system.caches.m_missLatencyHistSeqr::total      6720430                       (Unspecified)
system.caches.delayVCHist.vnet_0::bucket_size          512                       # delay histogram for vnet_0 (Unspecified)
system.caches.delayVCHist.vnet_0::max_bucket         5119                       # delay histogram for vnet_0 (Unspecified)
system.caches.delayVCHist.vnet_0::samples     19904628                       # delay histogram for vnet_0 (Unspecified)
system.caches.delayVCHist.vnet_0::mean       1.239368                       # delay histogram for vnet_0 (Unspecified)
system.caches.delayVCHist.vnet_0::stdev      3.628435                       # delay histogram for vnet_0 (Unspecified)
system.caches.delayVCHist.vnet_0         |    19904606    100.00%    100.00% |          10      0.00%    100.00% |           5      0.00%    100.00% |           3      0.00%    100.00% |           2      0.00%    100.00% |           0      0.00%    100.00% |           1      0.00%    100.00% |           0      0.00%    100.00% |           1      0.00%    100.00% |           0      0.00%    100.00% # delay histogram for vnet_0 (Unspecified)
system.caches.delayVCHist.vnet_0::total      19904628                       # delay histogram for vnet_0 (Unspecified)
system.caches.delayVCHist.vnet_1::bucket_size            8                       # delay histogram for vnet_1 (Unspecified)
system.caches.delayVCHist.vnet_1::max_bucket           79                       # delay histogram for vnet_1 (Unspecified)
system.caches.delayVCHist.vnet_1::samples     26617755                       # delay histogram for vnet_1 (Unspecified)
system.caches.delayVCHist.vnet_1::mean       0.044272                       # delay histogram for vnet_1 (Unspecified)
system.caches.delayVCHist.vnet_1::stdev      0.512971                       # delay histogram for vnet_1 (Unspecified)
system.caches.delayVCHist.vnet_1         |    26588070     99.89%     99.89% |       27886      0.10%     99.99% |        1321      0.00%    100.00% |         382      0.00%    100.00% |          84      0.00%    100.00% |          11      0.00%    100.00% |           1      0.00%    100.00% |           0      0.00%    100.00% |           0      0.00%    100.00% |           0      0.00%    100.00% # delay histogram for vnet_1 (Unspecified)
system.caches.delayVCHist.vnet_1::total      26617755                       # delay histogram for vnet_1 (Unspecified)
system.caches.delayVCHist.vnet_2::bucket_size            1                       # delay histogram for vnet_2 (Unspecified)
system.caches.delayVCHist.vnet_2::max_bucket            9                       # delay histogram for vnet_2 (Unspecified)
system.caches.delayVCHist.vnet_2::samples       133405                       # delay histogram for vnet_2 (Unspecified)
system.caches.delayVCHist.vnet_2::mean       0.000630                       # delay histogram for vnet_2 (Unspecified)
system.caches.delayVCHist.vnet_2::stdev      0.035481                       # delay histogram for vnet_2 (Unspecified)
system.caches.delayVCHist.vnet_2         |      133363     99.97%     99.97% |           0      0.00%     99.97% |          42      0.03%    100.00% |           0      0.00%    100.00% |           0      0.00%    100.00% |           0      0.00%    100.00% |           0      0.00%    100.00% |           0      0.00%    100.00% |           0      0.00%    100.00% |           0      0.00%    100.00% # delay histogram for vnet_2 (Unspecified)
system.caches.delayVCHist.vnet_2::total        133405                       # delay histogram for vnet_2 (Unspecified)
system.caches.L1Cache_Controller.Load    |     7425267     12.16%     12.16% |     7195489     11.79%     23.95% |     7582925     12.42%     36.37% |     7466922     12.23%     48.60% |     7891655     12.93%     61.53% |     7396570     12.12%     73.65% |     7848595     12.86%     86.50% |     8239697     13.50%    100.00% (Unspecified)
system.caches.L1Cache_Controller.Load::total     61047120                       (Unspecified)
system.caches.L1Cache_Controller.Ifetch  |     2784104     12.34%     12.34% |     2716215     12.04%     24.39% |     2763111     12.25%     36.64% |     2903205     12.87%     49.51% |     2883799     12.79%     62.29% |     2760403     12.24%     74.53% |     2862535     12.69%     87.22% |     2882594     12.78%    100.00% (Unspecified)
system.caches.L1Cache_Controller.Ifetch::total     22555966                       (Unspecified)
system.caches.L1Cache_Controller.Store   |     8693291     12.44%     12.44% |     8507175     12.18%     24.62% |     8629457     12.35%     36.97% |     8833088     12.64%     49.61% |     8859022     12.68%     62.29% |     8683320     12.43%     74.72% |     8817919     12.62%     87.34% |     8848066     12.66%    100.00% (Unspecified)
system.caches.L1Cache_Controller.Store::total     69871338                       (Unspecified)
system.caches.L1Cache_Controller.Inv     |       14600     11.26%     11.26% |       13840     10.67%     21.93% |       15994     12.33%     34.27% |       17389     13.41%     47.68% |       17892     13.80%     61.48% |       16748     12.92%     74.39% |       16803     12.96%     87.35% |       16402     12.65%    100.00% (Unspecified)
system.caches.L1Cache_Controller.Inv::total       129668                       (Unspecified)
system.caches.L1Cache_Controller.L1_Replacement |      834246     12.53%     12.53% |      829605     12.46%     24.99% |      830964     12.48%     37.47% |      836605     12.57%     50.04% |      832336     12.50%     62.54% |      831966     12.50%     75.04% |      831732     12.49%     87.53% |      830369     12.47%    100.00% (Unspecified)
system.caches.L1Cache_Controller.L1_Replacement::total      6657823                       (Unspecified)
system.caches.L1Cache_Controller.Fwd_GETX |          29     12.50%     12.50% |          41     17.67%     30.17% |          26     11.21%     41.38% |          24     10.34%     51.72% |          20      8.62%     60.34% |          28     12.07%     72.41% |          32     13.79%     86.21% |          32     13.79%    100.00% (Unspecified)
system.caches.L1Cache_Controller.Fwd_GETX::total          232                       (Unspecified)
system.caches.L1Cache_Controller.Fwd_GETS |        1041     29.70%     29.70% |         347      9.90%     39.60% |         259      7.39%     46.99% |         412     11.75%     58.74% |         472     13.47%     72.21% |         201      5.73%     77.95% |         280      7.99%     85.93% |         493     14.07%    100.00% (Unspecified)
system.caches.L1Cache_Controller.Fwd_GETS::total         3505                       (Unspecified)
system.caches.L1Cache_Controller.Data    |          64    100.00%    100.00% |           0      0.00%    100.00% |           0      0.00%    100.00% |           0      0.00%    100.00% |           0      0.00%    100.00% |           0      0.00%    100.00% |           0      0.00%    100.00% |           0      0.00%    100.00% (Unspecified)
system.caches.L1Cache_Controller.Data::total           64                       (Unspecified)
system.caches.L1Cache_Controller.Data_Exclusive |      573139     12.51%     12.51% |      571114     12.47%     24.98% |      571449     12.47%     37.45% |      578083     12.62%     50.07% |      572424     12.50%     62.56% |      571030     12.46%     75.03% |      572173     12.49%     87.52% |      571811     12.48%    100.00% (Unspecified)
system.caches.L1Cache_Controller.Data_Exclusive::total      4581223                       (Unspecified)
system.caches.L1Cache_Controller.DataS_fromL1 |         402     11.47%     11.47% |        1010     28.82%     40.29% |         469     13.38%     53.67% |         358     10.21%     63.88% |         306      8.73%     72.61% |         339      9.67%     82.28% |         308      8.79%     91.07% |         313      8.93%    100.00% (Unspecified)
system.caches.L1Cache_Controller.DataS_fromL1::total         3505                       (Unspecified)
system.caches.L1Cache_Controller.Data_all_Acks |      269119     12.60%     12.60% |      264986     12.41%     25.01% |      266677     12.49%     37.50% |      265896     12.45%     49.96% |      267576     12.53%     62.49% |      268129     12.56%     75.05% |      266906     12.50%     87.55% |      265910     12.45%    100.00% (Unspecified)
system.caches.L1Cache_Controller.Data_all_Acks::total      2135199                       (Unspecified)
system.caches.L1Cache_Controller.Ack     |        1249     80.89%     80.89% |          21      1.36%     82.25% |          14      0.91%     83.16% |          42      2.72%     85.88% |         117      7.58%     93.46% |          58      3.76%     97.22% |          21      1.36%     98.58% |          22      1.42%    100.00% (Unspecified)
system.caches.L1Cache_Controller.Ack::total         1544                       (Unspecified)
system.caches.L1Cache_Controller.Ack_all |         319     63.42%     63.42% |          15      2.98%     66.40% |          14      2.78%     69.18% |          31      6.16%     75.35% |          42      8.35%     83.70% |          39      7.75%     91.45% |          21      4.17%     95.63% |          22      4.37%    100.00% (Unspecified)
system.caches.L1Cache_Controller.Ack_all::total          503                       (Unspecified)
system.caches.L1Cache_Controller.WB_Ack  |      825365     12.56%     12.56% |      821260     12.50%     25.06% |      820441     12.49%     37.54% |      824799     12.55%     50.09% |      819609     12.47%     62.57% |      820639     12.49%     75.06% |      820007     12.48%     87.53% |      819163     12.47%    100.00% (Unspecified)
system.caches.L1Cache_Controller.WB_Ack::total      6571283                       (Unspecified)
system.caches.L1Cache_Controller.NP.Load |      576932     12.50%     12.50% |      574938     12.46%     24.97% |      575544     12.47%     37.44% |      582182     12.62%     50.06% |      576602     12.50%     62.55% |      575040     12.46%     75.02% |      576634     12.50%     87.52% |      576041     12.48%    100.00% (Unspecified)
system.caches.L1Cache_Controller.NP.Load::total      4613913                       (Unspecified)
system.caches.L1Cache_Controller.NP.Ifetch |        3140     16.27%     16.27% |        1790      9.27%     25.54% |        2066     10.70%     36.25% |        1877      9.72%     45.97% |        2938     15.22%     61.19% |        2486     12.88%     74.07% |        2496     12.93%     87.01% |        2508     12.99%    100.00% (Unspecified)
system.caches.L1Cache_Controller.NP.Ifetch::total        19301                       (Unspecified)
system.caches.L1Cache_Controller.NP.Store |      254549     12.56%     12.56% |      253162     12.49%     25.05% |      253643     12.51%     37.56% |      252819     12.47%     50.03% |      253103     12.49%     62.52% |      254747     12.57%     75.09% |      252887     12.48%     87.56% |      252106     12.44%    100.00% (Unspecified)
system.caches.L1Cache_Controller.NP.Store::total      2027016                       (Unspecified)
system.caches.L1Cache_Controller.NP.Inv  |        3777     13.29%     13.29% |        3190     11.22%     24.51% |        3405     11.98%     36.49% |        3353     11.80%     48.28% |        3805     13.39%     61.67% |        3517     12.37%     74.04% |        3684     12.96%     87.00% |        3694     13.00%    100.00% (Unspecified)
system.caches.L1Cache_Controller.NP.Inv::total        28425                       (Unspecified)
system.caches.L1Cache_Controller.I.Load  |         335      8.87%      8.87% |         600     15.88%     24.75% |         530     14.03%     38.78% |         561     14.85%     53.63% |         520     13.76%     67.39% |         451     11.94%     79.33% |         415     10.98%     90.31% |         366      9.69%    100.00% (Unspecified)
system.caches.L1Cache_Controller.I.Load::total         3778                       (Unspecified)
system.caches.L1Cache_Controller.I.Ifetch |        7664     13.87%     13.87% |        6560     11.87%     25.74% |        6717     12.16%     37.90% |        6804     12.31%     50.21% |        7043     12.75%     62.96% |        6709     12.14%     75.10% |        6874     12.44%     87.54% |        6884     12.46%    100.00% (Unspecified)
system.caches.L1Cache_Controller.I.Ifetch::total        55255                       (Unspecified)
system.caches.L1Cache_Controller.I.Store |         105     14.36%     14.36% |          60      8.21%     22.57% |          95     13.00%     35.57% |          95     13.00%     48.56% |         100     13.68%     62.24% |          66      9.03%     71.27% |          81     11.08%     82.35% |         129     17.65%    100.00% (Unspecified)
system.caches.L1Cache_Controller.I.Store::total          731                       (Unspecified)
system.caches.L1Cache_Controller.I.L1_Replacement |        2230      5.92%      5.92% |        2936      7.79%     13.70% |        4737     12.57%     26.27% |        6093     16.16%     42.43% |        6019     15.97%     58.40% |        5477     14.53%     72.93% |        5377     14.26%     87.19% |        4829     12.81%    100.00% (Unspecified)
system.caches.L1Cache_Controller.I.L1_Replacement::total        37698                       (Unspecified)
system.caches.L1Cache_Controller.S.Load  |     1883987     12.31%     12.31% |     1758447     11.49%     23.80% |     1937874     12.66%     36.47% |     1685713     11.02%     47.49% |     1963265     12.83%     60.32% |     1662474     10.86%     71.18% |     2163251     14.14%     85.32% |     2246699     14.68%    100.00% (Unspecified)
system.caches.L1Cache_Controller.S.Load::total     15301710                       (Unspecified)
system.caches.L1Cache_Controller.S.Ifetch |     2773300     12.34%     12.34% |     2707865     12.04%     24.38% |     2754328     12.25%     36.63% |     2894524     12.88%     49.51% |     2873818     12.78%     62.29% |     2751208     12.24%     74.53% |     2853165     12.69%     87.22% |     2873202     12.78%    100.00% (Unspecified)
system.caches.L1Cache_Controller.S.Ifetch::total     22481410                       (Unspecified)
system.caches.L1Cache_Controller.S.Store |         255     58.09%     58.09% |          15      3.42%     61.50% |          14      3.19%     64.69% |          31      7.06%     71.75% |          42      9.57%     81.32% |          39      8.88%     90.21% |          21      4.78%     94.99% |          22      5.01%    100.00% (Unspecified)
system.caches.L1Cache_Controller.S.Store::total          439                       (Unspecified)
system.caches.L1Cache_Controller.S.Inv   |        8727     13.79%     13.79% |        7525     11.89%     25.67% |        7670     12.12%     37.79% |        7755     12.25%     50.04% |        8212     12.97%     63.01% |        7795     12.31%     75.33% |        7809     12.34%     87.66% |        7811     12.34%    100.00% (Unspecified)
system.caches.L1Cache_Controller.S.Inv::total        63304                       (Unspecified)
system.caches.L1Cache_Controller.S.L1_Replacement |        6651     13.62%     13.62% |        5409     11.07%     24.69% |        5786     11.85%     36.54% |        5713     11.70%     48.24% |        6708     13.73%     61.97% |        5850     11.98%     73.95% |        6348     13.00%     86.94% |        6377     13.06%    100.00% (Unspecified)
system.caches.L1Cache_Controller.S.L1_Replacement::total        48842                       (Unspecified)
system.caches.L1Cache_Controller.E.Load  |     2200979     11.69%     11.69% |     2197550     11.67%     23.36% |     2341721     12.44%     35.80% |     2351123     12.49%     48.29% |     2490830     13.23%     61.52% |     2415301     12.83%     74.35% |     2272164     12.07%     86.42% |     2556538     13.58%    100.00% (Unspecified)
system.caches.L1Cache_Controller.E.Load::total     18826206                       (Unspecified)
system.caches.L1Cache_Controller.E.Store |       75096     12.61%     12.61% |       74626     12.53%     25.14% |       74614     12.53%     37.66% |       75210     12.63%     50.29% |       73903     12.41%     62.70% |       74179     12.45%     75.15% |       74113     12.44%     87.59% |       73907     12.41%    100.00% (Unspecified)
system.caches.L1Cache_Controller.E.Store::total       595648                       (Unspecified)
system.caches.L1Cache_Controller.E.Inv   |        1355      6.46%      6.46% |        1804      8.60%     15.05% |        3141     14.97%     30.02% |        3582     17.07%     47.08% |        2954     14.07%     61.16% |        2862     13.64%     74.80% |        2676     12.75%     87.55% |        2614     12.45%    100.00% (Unspecified)
system.caches.L1Cache_Controller.E.Inv::total        20988                       (Unspecified)
system.caches.L1Cache_Controller.E.L1_Replacement |      492222     12.43%     12.43% |      494537     12.49%     24.92% |      493648     12.47%     37.39% |      499071     12.61%     50.00% |      495346     12.51%     62.51% |      494006     12.48%     74.99% |      495250     12.51%     87.50% |      495057     12.50%    100.00% (Unspecified)
system.caches.L1Cache_Controller.E.L1_Replacement::total      3959137                       (Unspecified)
system.caches.L1Cache_Controller.E.Fwd_GETX |          10     12.35%     12.35% |          21     25.93%     38.27% |           9     11.11%     49.38% |          11     13.58%     62.96% |           4      4.94%     67.90% |          10     12.35%     80.25% |           8      9.88%     90.12% |           8      9.88%    100.00% (Unspecified)
system.caches.L1Cache_Controller.E.Fwd_GETX::total           81                       (Unspecified)
system.caches.L1Cache_Controller.E.Fwd_GETS |         633     22.23%     22.23% |         336     11.80%     34.04% |         248      8.71%     42.75% |         381     13.38%     56.13% |         347     12.19%     68.32% |         163      5.73%     74.04% |         263      9.24%     83.28% |         476     16.72%    100.00% (Unspecified)
system.caches.L1Cache_Controller.E.Fwd_GETS::total         2847                       (Unspecified)
system.caches.L1Cache_Controller.M.Load  |     2763034     12.39%     12.39% |     2663954     11.95%     24.33% |     2727256     12.23%     36.56% |     2847343     12.77%     49.33% |     2860438     12.83%     62.16% |     2743304     12.30%     74.46% |     2836131     12.72%     87.18% |     2860053     12.82%    100.00% (Unspecified)
system.caches.L1Cache_Controller.M.Load::total     22301513                       (Unspecified)
system.caches.L1Cache_Controller.M.Store |     8363286     12.44%     12.44% |     8179312     12.16%     24.60% |     8301091     12.34%     36.94% |     8504933     12.65%     49.59% |     8531874     12.69%     62.28% |     8354289     12.42%     74.70% |     8490817     12.63%     87.33% |     8521902     12.67%    100.00% (Unspecified)
system.caches.L1Cache_Controller.M.Store::total     67247504                       (Unspecified)
system.caches.L1Cache_Controller.M.Inv   |         740      4.42%      4.42% |        1291      7.72%     12.14% |        1727     10.32%     22.46% |        2652     15.85%     38.31% |        2874     17.18%     55.49% |        2547     15.22%     70.72% |        2618     15.65%     86.37% |        2281     13.63%    100.00% (Unspecified)
system.caches.L1Cache_Controller.M.Inv::total        16730                       (Unspecified)
system.caches.L1Cache_Controller.M.L1_Replacement |      333143     12.75%     12.75% |      326723     12.51%     25.26% |      326793     12.51%     37.77% |      325728     12.47%     50.24% |      324263     12.41%     62.66% |      326633     12.50%     75.16% |      324757     12.43%     87.59% |      324106     12.41%    100.00% (Unspecified)
system.caches.L1Cache_Controller.M.L1_Replacement::total      2612146                       (Unspecified)
system.caches.L1Cache_Controller.M.Fwd_GETX |          19     12.58%     12.58% |          20     13.25%     25.83% |          17     11.26%     37.09% |          13      8.61%     45.70% |          16     10.60%     56.29% |          18     11.92%     68.21% |          24     15.89%     84.11% |          24     15.89%    100.00% (Unspecified)
system.caches.L1Cache_Controller.M.Fwd_GETX::total          151                       (Unspecified)
system.caches.L1Cache_Controller.M.Fwd_GETS |         408     62.01%     62.01% |          11      1.67%     63.68% |          11      1.67%     65.35% |          31      4.71%     70.06% |         125     19.00%     89.06% |          38      5.78%     94.83% |          17      2.58%     97.42% |          17      2.58%    100.00% (Unspecified)
system.caches.L1Cache_Controller.M.Fwd_GETS::total          658                       (Unspecified)
system.caches.L1Cache_Controller.IS.Inv  |           0      0.00%      0.00% |          28     13.27%     13.27% |          51     24.17%     37.44% |          45     21.33%     58.77% |          46     21.80%     80.57% |          25     11.85%     92.42% |          14      6.64%     99.05% |           2      0.95%    100.00% (Unspecified)
system.caches.L1Cache_Controller.IS.Inv::total          211                       (Unspecified)
system.caches.L1Cache_Controller.IS.Data_Exclusive |      573139     12.51%     12.51% |      571114     12.47%     24.98% |      571449     12.47%     37.45% |      578083     12.62%     50.07% |      572424     12.50%     62.56% |      571030     12.46%     75.03% |      572173     12.49%     87.52% |      571811     12.48%    100.00% (Unspecified)
system.caches.L1Cache_Controller.IS.Data_Exclusive::total      4581223                       (Unspecified)
system.caches.L1Cache_Controller.IS.DataS_fromL1 |         402     11.47%     11.47% |        1010     28.82%     40.29% |         469     13.38%     53.67% |         358     10.21%     63.88% |         306      8.73%     72.61% |         339      9.67%     82.28% |         308      8.79%     91.07% |         313      8.93%    100.00% (Unspecified)
system.caches.L1Cache_Controller.IS.DataS_fromL1::total         3505                       (Unspecified)
system.caches.L1Cache_Controller.IS.Data_all_Acks |       14530     13.54%     13.54% |       11736     10.94%     24.48% |       12888     12.01%     36.49% |       12937     12.06%     48.54% |       14327     13.35%     61.90% |       13292     12.39%     74.28% |       13924     12.98%     87.26% |       13673     12.74%    100.00% (Unspecified)
system.caches.L1Cache_Controller.IS.Data_all_Acks::total       107307                       (Unspecified)
system.caches.L1Cache_Controller.IM.Data |          64    100.00%    100.00% |           0      0.00%    100.00% |           0      0.00%    100.00% |           0      0.00%    100.00% |           0      0.00%    100.00% |           0      0.00%    100.00% |           0      0.00%    100.00% |           0      0.00%    100.00% (Unspecified)
system.caches.L1Cache_Controller.IM.Data::total           64                       (Unspecified)
system.caches.L1Cache_Controller.IM.Data_all_Acks |      254589     12.56%     12.56% |      253222     12.49%     25.04% |      253738     12.51%     37.56% |      252914     12.47%     50.03% |      253203     12.49%     62.52% |      254812     12.57%     75.08% |      252968     12.48%     87.56% |      252235     12.44%    100.00% (Unspecified)
system.caches.L1Cache_Controller.IM.Data_all_Acks::total      2027681                       (Unspecified)
system.caches.L1Cache_Controller.SM.Ack  |        1249     80.89%     80.89% |          21      1.36%     82.25% |          14      0.91%     83.16% |          42      2.72%     85.88% |         117      7.58%     93.46% |          58      3.76%     97.22% |          21      1.36%     98.58% |          22      1.42%    100.00% (Unspecified)
system.caches.L1Cache_Controller.SM.Ack::total         1544                       (Unspecified)
system.caches.L1Cache_Controller.SM.Ack_all |         319     63.42%     63.42% |          15      2.98%     66.40% |          14      2.78%     69.18% |          31      6.16%     75.35% |          42      8.35%     83.70% |          39      7.75%     91.45% |          21      4.17%     95.63% |          22      4.37%    100.00% (Unspecified)
system.caches.L1Cache_Controller.SM.Ack_all::total          503                       (Unspecified)
system.caches.L1Cache_Controller.IS_I.Data_all_Acks |           0      0.00%      0.00% |          28     13.27%     13.27% |          51     24.17%     37.44% |          45     21.33%     58.77% |          46     21.80%     80.57% |          25     11.85%     92.42% |          14      6.64%     99.05% |           2      0.95%    100.00% (Unspecified)
system.caches.L1Cache_Controller.IS_I.Data_all_Acks::total          211                       (Unspecified)
system.caches.L1Cache_Controller.M_I.Inv |           1     10.00%     10.00% |           2     20.00%     30.00% |           0      0.00%     30.00% |           2     20.00%     50.00% |           1     10.00%     60.00% |           2     20.00%     80.00% |           2     20.00%    100.00% |           0      0.00%    100.00% (Unspecified)
system.caches.L1Cache_Controller.M_I.Inv::total           10                       (Unspecified)
system.caches.L1Cache_Controller.M_I.WB_Ack |      825364     12.56%     12.56% |      821258     12.50%     25.06% |      820441     12.49%     37.54% |      824797     12.55%     50.09% |      819608     12.47%     62.57% |      820637     12.49%     75.06% |      820005     12.48%     87.53% |      819163     12.47%    100.00% (Unspecified)
system.caches.L1Cache_Controller.M_I.WB_Ack::total      6571273                       (Unspecified)
system.caches.L1Cache_Controller.SINK_WB_ACK.WB_Ack |           1     10.00%     10.00% |           2     20.00%     30.00% |           0      0.00%     30.00% |           2     20.00%     50.00% |           1     10.00%     60.00% |           2     20.00%     80.00% |           2     20.00%    100.00% |           0      0.00%    100.00% (Unspecified)
system.caches.L1Cache_Controller.SINK_WB_ACK.WB_Ack::total           10                       (Unspecified)
system.caches.Directory_Controller.Fetch |       11396      0.17%      0.17% |     6585040     99.83%    100.00% (Unspecified)
system.caches.Directory_Controller.Fetch::total      6596436                       (Unspecified)
system.caches.Directory_Controller.Data  |         635      0.02%      0.02% |     2651042     99.98%    100.00% (Unspecified)
system.caches.Directory_Controller.Data::total      2651677                       (Unspecified)
system.caches.Directory_Controller.Memory_Data |       11396      0.17%      0.17% |     6585037     99.83%    100.00% (Unspecified)
system.caches.Directory_Controller.Memory_Data::total      6596433                       (Unspecified)
system.caches.Directory_Controller.Memory_Ack |         635      0.02%      0.02% |     2651042     99.98%    100.00% (Unspecified)
system.caches.Directory_Controller.Memory_Ack::total      2651677                       (Unspecified)
system.caches.Directory_Controller.CleanReplacement |       10744      0.27%      0.27% |     3934015     99.73%    100.00% (Unspecified)
system.caches.Directory_Controller.CleanReplacement::total      3944759                       (Unspecified)
system.caches.Directory_Controller.I.Fetch |       11396      0.17%      0.17% |     6585040     99.83%    100.00% (Unspecified)
system.caches.Directory_Controller.I.Fetch::total      6596436                       (Unspecified)
system.caches.Directory_Controller.M.Data |         635      0.02%      0.02% |     2651042     99.98%    100.00% (Unspecified)
system.caches.Directory_Controller.M.Data::total      2651677                       (Unspecified)
system.caches.Directory_Controller.M.CleanReplacement |       10744      0.27%      0.27% |     3934015     99.73%    100.00% (Unspecified)
system.caches.Directory_Controller.M.CleanReplacement::total      3944759                       (Unspecified)
system.caches.Directory_Controller.IM.Memory_Data |       11396      0.17%      0.17% |     6585037     99.83%    100.00% (Unspecified)
system.caches.Directory_Controller.IM.Memory_Data::total      6596433                       (Unspecified)
system.caches.Directory_Controller.MI.Memory_Ack |         635      0.02%      0.02% |     2651042     99.98%    100.00% (Unspecified)
system.caches.Directory_Controller.MI.Memory_Ack::total      2651677                       (Unspecified)
system.caches.L2Cache_Controller.L1_GET_INSTR |        9771     13.10%     13.10% |       10439     13.99%     27.09% |        8864     11.88%     38.97% |        6970      9.34%     48.32% |        9460     12.68%     61.00% |        9609     12.88%     73.88% |        9613     12.89%     86.77% |        9872     13.23%    100.00% (Unspecified)
system.caches.L2Cache_Controller.L1_GET_INSTR::total        74598                       (Unspecified)
system.caches.L2Cache_Controller.L1_GETS |      580197     12.56%     12.56% |      577428     12.50%     25.06% |      577169     12.49%     37.55% |      576264     12.47%     50.03% |      576177     12.47%     62.50% |      576763     12.48%     74.98% |      577915     12.51%     87.49% |      577738     12.51%    100.00% (Unspecified)
system.caches.L2Cache_Controller.L1_GETS::total      4619651                       (Unspecified)
system.caches.L2Cache_Controller.L1_GETX |      253807     12.52%     12.52% |      253346     12.49%     25.01% |      252448     12.45%     37.46% |      253059     12.48%     49.94% |      253483     12.50%     62.44% |      254370     12.54%     74.98% |      253546     12.50%     87.48% |      253836     12.52%    100.00% (Unspecified)
system.caches.L2Cache_Controller.L1_GETX::total      2027895                       (Unspecified)
system.caches.L2Cache_Controller.L1_UPGRADE |           7      1.37%      1.37% |          41      8.02%      9.39% |          51      9.98%     19.37% |          13      2.54%     21.92% |          54     10.57%     32.49% |          20      3.91%     36.40% |         311     60.86%     97.26% |          14      2.74%    100.00% (Unspecified)
system.caches.L2Cache_Controller.L1_UPGRADE::total          511                       (Unspecified)
system.caches.L2Cache_Controller.L1_PUTX |      821435     12.50%     12.50% |      821510     12.50%     25.00% |      819830     12.48%     37.48% |      821072     12.49%     49.97% |      821354     12.50%     62.47% |      823023     12.52%     75.00% |      821304     12.50%     87.49% |      821745     12.51%    100.00% (Unspecified)
system.caches.L2Cache_Controller.L1_PUTX::total      6571273                       (Unspecified)
system.caches.L2Cache_Controller.L1_PUTX_old |           2     11.11%     11.11% |           6     33.33%     44.44% |           2     11.11%     55.56% |           2     11.11%     66.67% |           3     16.67%     83.33% |           0      0.00%     83.33% |           1      5.56%     88.89% |           2     11.11%    100.00% (Unspecified)
system.caches.L2Cache_Controller.L1_PUTX_old::total           18                       (Unspecified)
system.caches.L2Cache_Controller.L2_Replacement |      329685     12.51%     12.51% |      329132     12.49%     25.00% |      328458     12.47%     37.47% |      329211     12.49%     49.96% |      329099     12.49%     62.45% |      330336     12.54%     74.99% |      329284     12.50%     87.48% |      329805     12.52%    100.00% (Unspecified)
system.caches.L2Cache_Controller.L2_Replacement::total      2635010                       (Unspecified)
system.caches.L2Cache_Controller.L2_Replacement_clean |      495149     12.50%     12.50% |      495609     12.51%     25.01% |      494784     12.49%     37.50% |      494734     12.49%     49.99% |      495436     12.51%     62.50% |      495482     12.51%     75.00% |      495013     12.50%     87.50% |      495219     12.50%    100.00% (Unspecified)
system.caches.L2Cache_Controller.L2_Replacement_clean::total      3961426                       (Unspecified)
system.caches.L2Cache_Controller.Mem_Data |      824834     12.50%     12.50% |      824741     12.50%     25.01% |      823242     12.48%     37.49% |      823944     12.49%     49.98% |      824535     12.50%     62.48% |      825817     12.52%     75.00% |      824297     12.50%     87.49% |      825023     12.51%    100.00% (Unspecified)
system.caches.L2Cache_Controller.Mem_Data::total      6596433                       (Unspecified)
system.caches.L2Cache_Controller.Mem_Ack |      824834     12.50%     12.50% |      824741     12.50%     25.01% |      823242     12.48%     37.49% |      823945     12.49%     49.98% |      824535     12.50%     62.48% |      825818     12.52%     75.00% |      824297     12.50%     87.49% |      825024     12.51%    100.00% (Unspecified)
system.caches.L2Cache_Controller.Mem_Ack::total      6596436                       (Unspecified)
system.caches.L2Cache_Controller.WB_Data |        2235     12.85%     12.85% |        2113     12.15%     25.00% |        2053     11.81%     36.81% |        2063     11.86%     48.67% |        2074     11.93%     60.60% |        2190     12.59%     73.19% |        2427     13.96%     87.15% |        2235     12.85%    100.00% (Unspecified)
system.caches.L2Cache_Controller.WB_Data::total        17390                       (Unspecified)
system.caches.L2Cache_Controller.WB_Data_clean |         443     15.52%     15.52% |         356     12.47%     27.99% |         357     12.50%     40.49% |         356     12.47%     52.96% |         297     10.40%     63.36% |         316     11.07%     74.43% |         374     13.10%     87.53% |         356     12.47%    100.00% (Unspecified)
system.caches.L2Cache_Controller.WB_Data_clean::total         2855                       (Unspecified)
system.caches.L2Cache_Controller.Ack     |       11318     15.12%     15.12% |       10079     13.47%     28.59% |        9576     12.80%     41.39% |        7360      9.83%     51.22% |        9130     12.20%     63.42% |        8935     11.94%     75.36% |        8527     11.39%     86.75% |        9914     13.25%    100.00% (Unspecified)
system.caches.L2Cache_Controller.Ack::total        74839                       (Unspecified)
system.caches.L2Cache_Controller.Ack_all |        4726     12.95%     12.95% |        4782     13.11%     26.06% |        4521     12.39%     38.46% |        4235     11.61%     50.06% |        4528     12.41%     62.48% |        4574     12.54%     75.01% |        4380     12.01%     87.02% |        4735     12.98%    100.00% (Unspecified)
system.caches.L2Cache_Controller.Ack_all::total        36481                       (Unspecified)
system.caches.L2Cache_Controller.Unblock |         543     15.49%     15.49% |         411     11.73%     27.22% |         417     11.90%     39.12% |         411     11.73%     50.84% |         346      9.87%     60.71% |         338      9.64%     70.36% |         669     19.09%     89.44% |         370     10.56%    100.00% (Unspecified)
system.caches.L2Cache_Controller.Unblock::total         3505                       (Unspecified)
system.caches.L2Cache_Controller.Exclusive_Unblock |      826215     12.50%     12.50% |      826244     12.50%     25.00% |      824418     12.47%     37.48% |      825715     12.49%     49.97% |      826049     12.50%     62.47% |      827916     12.53%     74.99% |      826269     12.50%     87.49% |      826581     12.51%    100.00% (Unspecified)
system.caches.L2Cache_Controller.Exclusive_Unblock::total      6609407                       (Unspecified)
system.caches.L2Cache_Controller.NP.L1_GET_INSTR |        1449     13.04%     13.04% |        1560     14.04%     27.07% |        1391     12.52%     39.59% |        1125     10.12%     49.71% |        1411     12.70%     62.41% |        1381     12.43%     74.83% |        1314     11.82%     86.66% |        1483     13.34%    100.00% (Unspecified)
system.caches.L2Cache_Controller.NP.L1_GET_INSTR::total        11114                       (Unspecified)
system.caches.L2Cache_Controller.NP.L1_GETS |      570061     12.50%     12.50% |      570214     12.50%     25.00% |      569506     12.49%     37.49% |      570026     12.50%     49.99% |      570114     12.50%     62.49% |      570740     12.51%     75.00% |      569854     12.49%     87.50% |      570163     12.50%    100.00% (Unspecified)
system.caches.L2Cache_Controller.NP.L1_GETS::total      4560678                       (Unspecified)
system.caches.L2Cache_Controller.NP.L1_GETX |      253324     12.51%     12.51% |      252967     12.49%     25.01% |      252345     12.46%     37.47% |      252794     12.49%     49.96% |      253010     12.50%     62.45% |      253697     12.53%     74.98% |      253129     12.50%     87.49% |      253378     12.51%    100.00% (Unspecified)
system.caches.L2Cache_Controller.NP.L1_GETX::total      2024644                       (Unspecified)
system.caches.L2Cache_Controller.NP.L1_PUTX_old |           1     12.50%     12.50% |           3     37.50%     50.00% |           1     12.50%     62.50% |           1     12.50%     75.00% |           1     12.50%     87.50% |           0      0.00%     87.50% |           0      0.00%     87.50% |           1     12.50%    100.00% (Unspecified)
system.caches.L2Cache_Controller.NP.L1_PUTX_old::total            8                       (Unspecified)
system.caches.L2Cache_Controller.SS.L1_GET_INSTR |        5638     13.82%     13.82% |        5581     13.68%     27.50% |        4816     11.81%     39.31% |        3549      8.70%     48.01% |        5066     12.42%     60.43% |        4948     12.13%     72.56% |        5481     13.44%     86.00% |        5711     14.00%    100.00% (Unspecified)
system.caches.L2Cache_Controller.SS.L1_GET_INSTR::total        40790                       (Unspecified)
system.caches.L2Cache_Controller.SS.L1_GETS |        5827     22.13%     22.13% |        3136     11.91%     34.04% |        3704     14.07%     48.10% |        2444      9.28%     57.38% |        2423      9.20%     66.58% |        2109      8.01%     74.59% |        2948     11.19%     85.79% |        3743     14.21%    100.00% (Unspecified)
system.caches.L2Cache_Controller.SS.L1_GETS::total        26334                       (Unspecified)
system.caches.L2Cache_Controller.SS.L1_GETX |          40     62.50%     62.50% |           0      0.00%     62.50% |           0      0.00%     62.50% |           0      0.00%     62.50% |           0      0.00%     62.50% |           0      0.00%     62.50% |          24     37.50%    100.00% |           0      0.00%    100.00% (Unspecified)
system.caches.L2Cache_Controller.SS.L1_GETX::total           64                       (Unspecified)
system.caches.L2Cache_Controller.SS.L1_UPGRADE |           7      1.59%      1.59% |          41      9.34%     10.93% |          51     11.62%     22.55% |          13      2.96%     25.51% |          54     12.30%     37.81% |          20      4.56%     42.37% |         239     54.44%     96.81% |          14      3.19%    100.00% (Unspecified)
system.caches.L2Cache_Controller.SS.L1_UPGRADE::total          439                       (Unspecified)
system.caches.L2Cache_Controller.SS.L2_Replacement |          62     29.38%     29.38% |          33     15.64%     45.02% |          12      5.69%     50.71% |          52     24.64%     75.36% |           4      1.90%     77.25% |           4      1.90%     79.15% |          43     20.38%     99.53% |           1      0.47%    100.00% (Unspecified)
system.caches.L2Cache_Controller.SS.L2_Replacement::total          211                       (Unspecified)
system.caches.L2Cache_Controller.SS.L2_Replacement_clean |        2158     14.12%     14.12% |        2081     13.62%     27.74% |        1975     12.92%     40.66% |        1597     10.45%     51.11% |        1854     12.13%     63.24% |        1818     11.90%     75.14% |        1738     11.37%     86.51% |        2061     13.49%    100.00% (Unspecified)
system.caches.L2Cache_Controller.SS.L2_Replacement_clean::total        15282                       (Unspecified)
system.caches.L2Cache_Controller.M.L1_GET_INSTR |           0      0.00%      0.00% |           2     25.00%     25.00% |           1     12.50%     37.50% |           0      0.00%     37.50% |           0      0.00%     37.50% |           1     12.50%     50.00% |           2     25.00%     75.00% |           2     25.00%    100.00% (Unspecified)
system.caches.L2Cache_Controller.M.L1_GET_INSTR::total            8                       (Unspecified)
system.caches.L2Cache_Controller.M.L1_GETS |        2669     11.98%     11.98% |        2881     12.93%     24.90% |        2693     12.08%     36.99% |        2792     12.53%     49.51% |        2683     12.04%     61.55% |        2968     13.32%     74.87% |        2746     12.32%     87.19% |        2855     12.81%    100.00% (Unspecified)
system.caches.L2Cache_Controller.M.L1_GETS::total        22287                       (Unspecified)
system.caches.L2Cache_Controller.M.L1_GETX |         416     14.82%     14.82% |         343     12.22%     27.04% |          79      2.81%     29.85% |         250      8.91%     38.76% |         336     11.97%     50.73% |         593     21.13%     71.86% |         366     13.04%     84.89% |         424     15.11%    100.00% (Unspecified)
system.caches.L2Cache_Controller.M.L1_GETX::total         2807                       (Unspecified)
system.caches.L2Cache_Controller.M.L2_Replacement |      329618     12.51%     12.51% |      329099     12.49%     25.00% |      328441     12.47%     37.47% |      329151     12.49%     49.96% |      329087     12.49%     62.45% |      330314     12.54%     74.99% |      329227     12.50%     87.48% |      329797     12.52%    100.00% (Unspecified)
system.caches.L2Cache_Controller.M.L2_Replacement::total      2634734                       (Unspecified)
system.caches.L2Cache_Controller.M.L2_Replacement_clean |      488355     12.49%     12.49% |      488802     12.51%     25.00% |      488287     12.49%     37.49% |      488551     12.50%     49.99% |      488895     12.51%     62.50% |      488762     12.51%     75.01% |      488558     12.50%     87.51% |      488271     12.49%    100.00% (Unspecified)
system.caches.L2Cache_Controller.M.L2_Replacement_clean::total      3908481                       (Unspecified)
system.caches.L2Cache_Controller.MT.L1_GETS |         543     15.49%     15.49% |         411     11.73%     27.22% |         417     11.90%     39.12% |         411     11.73%     50.84% |         346      9.87%     60.71% |         338      9.64%     70.36% |         669     19.09%     89.44% |         370     10.56%    100.00% (Unspecified)
system.caches.L2Cache_Controller.MT.L1_GETS::total         3505                       (Unspecified)
system.caches.L2Cache_Controller.MT.L1_GETX |          19      8.19%      8.19% |          29     12.50%     20.69% |          21      9.05%     29.74% |          11      4.74%     34.48% |          52     22.41%     56.90% |          68     29.31%     86.21% |          16      6.90%     93.10% |          16      6.90%    100.00% (Unspecified)
system.caches.L2Cache_Controller.MT.L1_GETX::total          232                       (Unspecified)
system.caches.L2Cache_Controller.MT.L1_PUTX |      821435     12.50%     12.50% |      821510     12.50%     25.00% |      819830     12.48%     37.48% |      821072     12.49%     49.97% |      821354     12.50%     62.47% |      823023     12.52%     75.00% |      821304     12.50%     87.49% |      821745     12.51%    100.00% (Unspecified)
system.caches.L2Cache_Controller.MT.L1_PUTX::total      6571273                       (Unspecified)
system.caches.L2Cache_Controller.MT.L2_Replacement |           5      7.69%      7.69% |           0      0.00%      7.69% |           5      7.69%     15.38% |           8     12.31%     27.69% |           8     12.31%     40.00% |          18     27.69%     67.69% |          14     21.54%     89.23% |           7     10.77%    100.00% (Unspecified)
system.caches.L2Cache_Controller.MT.L2_Replacement::total           65                       (Unspecified)
system.caches.L2Cache_Controller.MT.L2_Replacement_clean |        4636     12.31%     12.31% |        4726     12.55%     24.86% |        4522     12.01%     36.86% |        4586     12.18%     49.04% |        4687     12.44%     61.48% |        4902     13.02%     74.50% |        4717     12.52%     87.02% |        4887     12.98%    100.00% (Unspecified)
system.caches.L2Cache_Controller.MT.L2_Replacement_clean::total        37663                       (Unspecified)
system.caches.L2Cache_Controller.M_I.L1_GET_INSTR |           9     21.43%     21.43% |           7     16.67%     38.10% |           4      9.52%     47.62% |           4      9.52%     57.14% |           8     19.05%     76.19% |           4      9.52%     85.71% |           4      9.52%     95.24% |           2      4.76%    100.00% (Unspecified)
system.caches.L2Cache_Controller.M_I.L1_GET_INSTR::total           42                       (Unspecified)
system.caches.L2Cache_Controller.M_I.L1_GETS |           5     17.24%     17.24% |           1      3.45%     20.69% |           2      6.90%     27.59% |           1      3.45%     31.03% |           2      6.90%     37.93% |           6     20.69%     58.62% |           7     24.14%     82.76% |           5     17.24%    100.00% (Unspecified)
system.caches.L2Cache_Controller.M_I.L1_GETS::total           29                       (Unspecified)
system.caches.L2Cache_Controller.M_I.L1_GETX |           8     16.00%     16.00% |           0      0.00%     16.00% |           1      2.00%     18.00% |           4      8.00%     26.00% |           3      6.00%     32.00% |          11     22.00%     54.00% |           5     10.00%     64.00% |          18     36.00%    100.00% (Unspecified)
system.caches.L2Cache_Controller.M_I.L1_GETX::total           50                       (Unspecified)
system.caches.L2Cache_Controller.M_I.L1_PUTX_old |           0      0.00%      0.00% |           0      0.00%      0.00% |           0      0.00%      0.00% |           0      0.00%      0.00% |           1     50.00%     50.00% |           0      0.00%     50.00% |           1     50.00%    100.00% |           0      0.00%    100.00% (Unspecified)
system.caches.L2Cache_Controller.M_I.L1_PUTX_old::total            2                       (Unspecified)
system.caches.L2Cache_Controller.M_I.Mem_Ack |      824834     12.50%     12.50% |      824741     12.50%     25.01% |      823242     12.48%     37.49% |      823945     12.49%     49.98% |      824535     12.50%     62.48% |      825818     12.52%     75.00% |      824297     12.50%     87.49% |      825024     12.51%    100.00% (Unspecified)
system.caches.L2Cache_Controller.M_I.Mem_Ack::total      6596436                       (Unspecified)
system.caches.L2Cache_Controller.MT_I.WB_Data |           5      7.69%      7.69% |           0      0.00%      7.69% |           5      7.69%     15.38% |           8     12.31%     27.69% |           8     12.31%     40.00% |          18     27.69%     67.69% |          14     21.54%     89.23% |           7     10.77%    100.00% (Unspecified)
system.caches.L2Cache_Controller.MT_I.WB_Data::total           65                       (Unspecified)
system.caches.L2Cache_Controller.MCT_I.L1_PUTX_old |           1     12.50%     12.50% |           3     37.50%     50.00% |           1     12.50%     62.50% |           1     12.50%     75.00% |           1     12.50%     87.50% |           0      0.00%     87.50% |           0      0.00%     87.50% |           1     12.50%    100.00% (Unspecified)
system.caches.L2Cache_Controller.MCT_I.L1_PUTX_old::total            8                       (Unspecified)
system.caches.L2Cache_Controller.MCT_I.WB_Data |        2129     12.77%     12.77% |        2055     12.33%     25.10% |        1988     11.93%     37.03% |        1999     11.99%     49.03% |        2016     12.10%     61.12% |        2150     12.90%     74.02% |        2117     12.70%     86.72% |        2213     13.28%    100.00% (Unspecified)
system.caches.L2Cache_Controller.MCT_I.WB_Data::total        16667                       (Unspecified)
system.caches.L2Cache_Controller.MCT_I.WB_Data_clean |           1     12.50%     12.50% |           3     37.50%     50.00% |           0      0.00%     50.00% |           1     12.50%     62.50% |           1     12.50%     75.00% |           0      0.00%     75.00% |           1     12.50%     87.50% |           1     12.50%    100.00% (Unspecified)
system.caches.L2Cache_Controller.MCT_I.WB_Data_clean::total            8                       (Unspecified)
system.caches.L2Cache_Controller.MCT_I.Ack_all |        2506     11.94%     11.94% |        2668     12.71%     24.65% |        2534     12.07%     36.73% |        2586     12.32%     49.05% |        2670     12.72%     61.77% |        2752     13.11%     74.88% |        2599     12.38%     87.26% |        2673     12.74%    100.00% (Unspecified)
system.caches.L2Cache_Controller.MCT_I.Ack_all::total        20988                       (Unspecified)
system.caches.L2Cache_Controller.I_I.Ack |       10893     14.76%     14.76% |        9869     13.37%     28.13% |        9516     12.89%     41.03% |        7272      9.85%     50.88% |        9114     12.35%     63.23% |        8931     12.10%     75.33% |        8292     11.24%     86.57% |        9913     13.43%    100.00% (Unspecified)
system.caches.L2Cache_Controller.I_I.Ack::total        73800                       (Unspecified)
system.caches.L2Cache_Controller.I_I.Ack_all |        2158     14.12%     14.12% |        2081     13.62%     27.74% |        1975     12.92%     40.66% |        1597     10.45%     51.11% |        1854     12.13%     63.24% |        1818     11.90%     75.14% |        1738     11.37%     86.51% |        2061     13.49%    100.00% (Unspecified)
system.caches.L2Cache_Controller.I_I.Ack_all::total        15282                       (Unspecified)
system.caches.L2Cache_Controller.S_I.Ack |         425     40.90%     40.90% |         210     20.21%     61.12% |          60      5.77%     66.89% |          88      8.47%     75.36% |          16      1.54%     76.90% |           4      0.38%     77.29% |         235     22.62%     99.90% |           1      0.10%    100.00% (Unspecified)
system.caches.L2Cache_Controller.S_I.Ack::total         1039                       (Unspecified)
system.caches.L2Cache_Controller.S_I.Ack_all |          62     29.38%     29.38% |          33     15.64%     45.02% |          12      5.69%     50.71% |          52     24.64%     75.36% |           4      1.90%     77.25% |           4      1.90%     79.15% |          43     20.38%     99.53% |           1      0.47%    100.00% (Unspecified)
system.caches.L2Cache_Controller.S_I.Ack_all::total          211                       (Unspecified)
system.caches.L2Cache_Controller.ISS.L1_GETS |         321     18.44%     18.44% |         231     13.27%     31.71% |         277     15.91%     47.62% |         170      9.76%     57.38% |         200     11.49%     68.87% |         169      9.71%     78.58% |         105      6.03%     84.61% |         268     15.39%    100.00% (Unspecified)
system.caches.L2Cache_Controller.ISS.L1_GETS::total         1741                       (Unspecified)
system.caches.L2Cache_Controller.ISS.L1_GETX |           0      0.00%      0.00% |           0      0.00%      0.00% |           0      0.00%      0.00% |           0      0.00%      0.00% |           0      0.00%      0.00% |           0      0.00%      0.00% |           3    100.00%    100.00% |           0      0.00%    100.00% (Unspecified)
system.caches.L2Cache_Controller.ISS.L1_GETX::total            3                       (Unspecified)
system.caches.L2Cache_Controller.ISS.Mem_Data |      569740     12.50%     12.50% |      569983     12.50%     25.00% |      569229     12.49%     37.49% |      569855     12.50%     49.99% |      569914     12.50%     62.49% |      570571     12.52%     75.00% |      569749     12.50%     87.50% |      569895     12.50%    100.00% (Unspecified)
system.caches.L2Cache_Controller.ISS.Mem_Data::total      4558936                       (Unspecified)
system.caches.L2Cache_Controller.IS.L1_GET_INSTR |        2675     11.81%     11.81% |        3289     14.52%     26.34% |        2652     11.71%     38.05% |        2292     10.12%     48.17% |        2975     13.14%     61.31% |        3275     14.46%     75.77% |        2812     12.42%     88.19% |        2674     11.81%    100.00% (Unspecified)
system.caches.L2Cache_Controller.IS.L1_GET_INSTR::total        22644                       (Unspecified)
system.caches.L2Cache_Controller.IS.L1_GETS |         703     22.35%     22.35% |         430     13.67%     36.01% |         511     16.24%     52.26% |         340     10.81%     63.06% |         344     10.93%     74.00% |         397     12.62%     86.62% |         138      4.39%     91.00% |         283      9.00%    100.00% (Unspecified)
system.caches.L2Cache_Controller.IS.L1_GETS::total         3146                       (Unspecified)
system.caches.L2Cache_Controller.IS.Mem_Data |        1770     13.77%     13.77% |        1791     13.93%     27.70% |        1668     12.98%     40.68% |        1295     10.07%     50.75% |        1611     12.53%     63.28% |        1550     12.06%     75.34% |        1419     11.04%     86.38% |        1751     13.62%    100.00% (Unspecified)
system.caches.L2Cache_Controller.IS.Mem_Data::total        12855                       (Unspecified)
system.caches.L2Cache_Controller.IM.L1_GETX |           0      0.00%      0.00% |           0      0.00%      0.00% |           1      3.12%      3.12% |           0      0.00%      3.12% |          28     87.50%     90.62% |           1      3.12%     93.75% |           2      6.25%    100.00% |           0      0.00%    100.00% (Unspecified)
system.caches.L2Cache_Controller.IM.L1_GETX::total           32                       (Unspecified)
system.caches.L2Cache_Controller.IM.Mem_Data |      253324     12.51%     12.51% |      252967     12.49%     25.01% |      252345     12.46%     37.47% |      252794     12.49%     49.96% |      253010     12.50%     62.45% |      253696     12.53%     74.98% |      253129     12.50%     87.49% |      253377     12.51%    100.00% (Unspecified)
system.caches.L2Cache_Controller.IM.Mem_Data::total      2024642                       (Unspecified)
system.caches.L2Cache_Controller.SS_MB.L1_GETS |           0      0.00%      0.00% |           0      0.00%      0.00% |           0      0.00%      0.00% |          42      5.08%      5.08% |          31      3.75%      8.83% |           0      0.00%      8.83% |         754     91.17%    100.00% |           0      0.00%    100.00% (Unspecified)
system.caches.L2Cache_Controller.SS_MB.L1_GETS::total          827                       (Unspecified)
system.caches.L2Cache_Controller.SS_MB.Exclusive_Unblock |          47      9.34%      9.34% |          41      8.15%     17.50% |          51     10.14%     27.63% |          13      2.58%     30.22% |          54     10.74%     40.95% |          20      3.98%     44.93% |         263     52.29%     97.22% |          14      2.78%    100.00% (Unspecified)
system.caches.L2Cache_Controller.SS_MB.Exclusive_Unblock::total          503                       (Unspecified)
system.caches.L2Cache_Controller.MT_MB.L1_GETS |           1      8.33%      8.33% |           4     33.33%     41.67% |           0      0.00%     41.67% |           0      0.00%     41.67% |           1      8.33%     50.00% |           3     25.00%     75.00% |           1      8.33%     83.33% |           2     16.67%    100.00% (Unspecified)
system.caches.L2Cache_Controller.MT_MB.L1_GETS::total           12                       (Unspecified)
system.caches.L2Cache_Controller.MT_MB.L1_GETX |           0      0.00%      0.00% |           7     11.11%     11.11% |           1      1.59%     12.70% |           0      0.00%     12.70% |          54     85.71%     98.41% |           0      0.00%     98.41% |           1      1.59%    100.00% |           0      0.00%    100.00% (Unspecified)
system.caches.L2Cache_Controller.MT_MB.L1_GETX::total           63                       (Unspecified)
system.caches.L2Cache_Controller.MT_MB.Exclusive_Unblock |      826168     12.50%     12.50% |      826203     12.50%     25.00% |      824367     12.47%     37.48% |      825702     12.49%     49.97% |      825995     12.50%     62.47% |      827896     12.53%     74.99% |      826006     12.50%     87.49% |      826567     12.51%    100.00% (Unspecified)
system.caches.L2Cache_Controller.MT_MB.Exclusive_Unblock::total      6608904                       (Unspecified)
system.caches.L2Cache_Controller.MT_IIB.L1_GETS |          58      5.44%      5.44% |         111     10.40%     15.84% |          59      5.53%     21.37% |          38      3.56%     24.93% |          33      3.09%     28.02% |          32      3.00%     31.02% |         688     64.48%     95.50% |          48      4.50%    100.00% (Unspecified)
system.caches.L2Cache_Controller.MT_IIB.L1_GETS::total         1067                       (Unspecified)
system.caches.L2Cache_Controller.MT_IIB.WB_Data |         101     16.16%     16.16% |          58      9.28%     25.44% |          44      7.04%     32.48% |          40      6.40%     38.88% |          50      8.00%     46.88% |          22      3.52%     50.40% |         295     47.20%     97.60% |          15      2.40%    100.00% (Unspecified)
system.caches.L2Cache_Controller.MT_IIB.WB_Data::total          625                       (Unspecified)
system.caches.L2Cache_Controller.MT_IIB.WB_Data_clean |         442     15.53%     15.53% |         353     12.40%     27.92% |         357     12.54%     40.46% |         355     12.47%     52.93% |         296     10.40%     63.33% |         316     11.10%     74.43% |         373     13.10%     87.53% |         355     12.47%    100.00% (Unspecified)
system.caches.L2Cache_Controller.MT_IIB.WB_Data_clean::total         2847                       (Unspecified)
system.caches.L2Cache_Controller.MT_IIB.Unblock |           0      0.00%      0.00% |           0      0.00%      0.00% |          16     48.48%     48.48% |          16     48.48%     96.97% |           0      0.00%     96.97% |           0      0.00%     96.97% |           1      3.03%    100.00% |           0      0.00%    100.00% (Unspecified)
system.caches.L2Cache_Controller.MT_IIB.Unblock::total           33                       (Unspecified)
system.caches.L2Cache_Controller.MT_IB.WB_Data |           0      0.00%      0.00% |           0      0.00%      0.00% |          16     48.48%     48.48% |          16     48.48%     96.97% |           0      0.00%     96.97% |           0      0.00%     96.97% |           1      3.03%    100.00% |           0      0.00%    100.00% (Unspecified)
system.caches.L2Cache_Controller.MT_IB.WB_Data::total           33                       (Unspecified)
system.caches.L2Cache_Controller.MT_SB.L1_GETS |           9     36.00%     36.00% |           9     36.00%     72.00% |           0      0.00%     72.00% |           0      0.00%     72.00% |           0      0.00%     72.00% |           1      4.00%     76.00% |           5     20.00%     96.00% |           1      4.00%    100.00% (Unspecified)
system.caches.L2Cache_Controller.MT_SB.L1_GETS::total           25                       (Unspecified)
system.caches.L2Cache_Controller.MT_SB.L1_UPGRADE |           0      0.00%      0.00% |           0      0.00%      0.00% |           0      0.00%      0.00% |           0      0.00%      0.00% |           0      0.00%      0.00% |           0      0.00%      0.00% |          72    100.00%    100.00% |           0      0.00%    100.00% (Unspecified)
system.caches.L2Cache_Controller.MT_SB.L1_UPGRADE::total           72                       (Unspecified)
system.caches.L2Cache_Controller.MT_SB.Unblock |         543     15.64%     15.64% |         411     11.84%     27.48% |         401     11.55%     39.03% |         395     11.38%     50.40% |         346      9.97%     60.37% |         338      9.74%     70.10% |         668     19.24%     89.34% |         370     10.66%    100.00% (Unspecified)
system.caches.L2Cache_Controller.MT_SB.Unblock::total         3472                       (Unspecified)
system.caches.RequestType.LD.latency_hist_seqr::bucket_size         1024                       (Unspecified)
system.caches.RequestType.LD.latency_hist_seqr::max_bucket        10239                       (Unspecified)
system.caches.RequestType.LD.latency_hist_seqr::samples     61047119                       (Unspecified)
system.caches.RequestType.LD.latency_hist_seqr::mean    48.794648                       (Unspecified)
system.caches.RequestType.LD.latency_hist_seqr::gmean     1.616126                       (Unspecified)
system.caches.RequestType.LD.latency_hist_seqr::stdev   194.280625                       (Unspecified)
system.caches.RequestType.LD.latency_hist_seqr |    60663601     99.37%     99.37% |      305542      0.50%     99.87% |       72286      0.12%     99.99% |        5484      0.01%    100.00% |         199      0.00%    100.00% |           7      0.00%    100.00% |           0      0.00%    100.00% |           0      0.00%    100.00% |           0      0.00%    100.00% |           0      0.00%    100.00% (Unspecified)
system.caches.RequestType.LD.latency_hist_seqr::total     61047119                       (Unspecified)
system.caches.RequestType.LD.hit_latency_hist_seqr::bucket_size            1                       (Unspecified)
system.caches.RequestType.LD.hit_latency_hist_seqr::max_bucket            9                       (Unspecified)
system.caches.RequestType.LD.hit_latency_hist_seqr::samples     56429429                       (Unspecified)
system.caches.RequestType.LD.hit_latency_hist_seqr::mean     1.003157                       (Unspecified)
system.caches.RequestType.LD.hit_latency_hist_seqr::gmean     1.002190                       (Unspecified)
system.caches.RequestType.LD.hit_latency_hist_seqr::stdev     0.056095                       (Unspecified)
system.caches.RequestType.LD.hit_latency_hist_seqr |           0      0.00%      0.00% |    56251308     99.68%     99.68% |      178120      0.32%    100.00% |           1      0.00%    100.00% |           0      0.00%    100.00% |           0      0.00%    100.00% |           0      0.00%    100.00% |           0      0.00%    100.00% |           0      0.00%    100.00% |           0      0.00%    100.00% (Unspecified)
system.caches.RequestType.LD.hit_latency_hist_seqr::total     56429429                       (Unspecified)
system.caches.RequestType.LD.miss_latency_hist_seqr::bucket_size         1024                       (Unspecified)
system.caches.RequestType.LD.miss_latency_hist_seqr::max_bucket        10239                       (Unspecified)
system.caches.RequestType.LD.miss_latency_hist_seqr::samples      4617690                       (Unspecified)
system.caches.RequestType.LD.miss_latency_hist_seqr::mean   632.819686                       (Unspecified)
system.caches.RequestType.LD.miss_latency_hist_seqr::gmean   555.247074                       (Unspecified)
system.caches.RequestType.LD.miss_latency_hist_seqr::stdev   360.557864                       (Unspecified)
system.caches.RequestType.LD.miss_latency_hist_seqr |     4234172     91.69%     91.69% |      305542      6.62%     98.31% |       72286      1.57%     99.88% |        5484      0.12%    100.00% |         199      0.00%    100.00% |           7      0.00%    100.00% |           0      0.00%    100.00% |           0      0.00%    100.00% |           0      0.00%    100.00% |           0      0.00%    100.00% (Unspecified)
system.caches.RequestType.LD.miss_latency_hist_seqr::total      4617690                       (Unspecified)
system.caches.RequestType.ST.latency_hist_seqr::bucket_size         1024                       (Unspecified)
system.caches.RequestType.ST.latency_hist_seqr::max_bucket        10239                       (Unspecified)
system.caches.RequestType.ST.latency_hist_seqr::samples     69468079                       (Unspecified)
system.caches.RequestType.ST.latency_hist_seqr::mean    17.043302                       (Unspecified)
system.caches.RequestType.ST.latency_hist_seqr::gmean     1.210837                       (Unspecified)
system.caches.RequestType.ST.latency_hist_seqr::stdev   109.336922                       (Unspecified)
system.caches.RequestType.ST.latency_hist_seqr |    69361051     99.85%     99.85% |       80269      0.12%     99.96% |       25395      0.04%    100.00% |        1302      0.00%    100.00% |          59      0.00%    100.00% |           3      0.00%    100.00% |           0      0.00%    100.00% |           0      0.00%    100.00% |           0      0.00%    100.00% |           0      0.00%    100.00% (Unspecified)
system.caches.RequestType.ST.latency_hist_seqr::total     69468079                       (Unspecified)
system.caches.RequestType.ST.hit_latency_hist_seqr::bucket_size          512                       (Unspecified)
system.caches.RequestType.ST.hit_latency_hist_seqr::max_bucket         5119                       (Unspecified)
system.caches.RequestType.ST.hit_latency_hist_seqr::samples     67445334                       (Unspecified)
system.caches.RequestType.ST.hit_latency_hist_seqr::mean     1.020859                       (Unspecified)
system.caches.RequestType.ST.hit_latency_hist_seqr::gmean     1.011936                       (Unspecified)
system.caches.RequestType.ST.hit_latency_hist_seqr::stdev     2.305376                       (Unspecified)
system.caches.RequestType.ST.hit_latency_hist_seqr |    67445184    100.00%    100.00% |          56      0.00%    100.00% |          14      0.00%    100.00% |          74      0.00%    100.00% |           4      0.00%    100.00% |           0      0.00%    100.00% |           1      0.00%    100.00% |           1      0.00%    100.00% |           0      0.00%    100.00% |           0      0.00%    100.00% (Unspecified)
system.caches.RequestType.ST.hit_latency_hist_seqr::total     67445334                       (Unspecified)
system.caches.RequestType.ST.miss_latency_hist_seqr::bucket_size         1024                       (Unspecified)
system.caches.RequestType.ST.miss_latency_hist_seqr::max_bucket        10239                       (Unspecified)
system.caches.RequestType.ST.miss_latency_hist_seqr::samples      2022745                       (Unspecified)
system.caches.RequestType.ST.miss_latency_hist_seqr::mean   551.287119                       (Unspecified)
system.caches.RequestType.ST.miss_latency_hist_seqr::gmean   480.421135                       (Unspecified)
system.caches.RequestType.ST.miss_latency_hist_seqr::stdev   341.185627                       (Unspecified)
system.caches.RequestType.ST.miss_latency_hist_seqr |     1915811     94.71%     94.71% |       80181      3.96%     98.68% |       25391      1.26%     99.93% |        1300      0.06%    100.00% |          59      0.00%    100.00% |           3      0.00%    100.00% |           0      0.00%    100.00% |           0      0.00%    100.00% |           0      0.00%    100.00% |           0      0.00%    100.00% (Unspecified)
system.caches.RequestType.ST.miss_latency_hist_seqr::total      2022745                       (Unspecified)
system.caches.RequestType.IFETCH.latency_hist_seqr::bucket_size          512                       (Unspecified)
system.caches.RequestType.IFETCH.latency_hist_seqr::max_bucket         5119                       (Unspecified)
system.caches.RequestType.IFETCH.latency_hist_seqr::samples     22555966                       (Unspecified)
system.caches.RequestType.IFETCH.latency_hist_seqr::mean     1.456922                       (Unspecified)
system.caches.RequestType.IFETCH.latency_hist_seqr::gmean     1.013119                       (Unspecified)
system.caches.RequestType.IFETCH.latency_hist_seqr::stdev    13.150565                       (Unspecified)
system.caches.RequestType.IFETCH.latency_hist_seqr |    22553677     99.99%     99.99% |        1973      0.01%    100.00% |         212      0.00%    100.00% |          69      0.00%    100.00% |          25      0.00%    100.00% |          10      0.00%    100.00% |           0      0.00%    100.00% |           0      0.00%    100.00% |           0      0.00%    100.00% |           0      0.00%    100.00% (Unspecified)
system.caches.RequestType.IFETCH.latency_hist_seqr::total     22555966                       (Unspecified)
system.caches.RequestType.IFETCH.hit_latency_hist_seqr::bucket_size            1                       (Unspecified)
system.caches.RequestType.IFETCH.hit_latency_hist_seqr::max_bucket            9                       (Unspecified)
system.caches.RequestType.IFETCH.hit_latency_hist_seqr::samples     22481410                       (Unspecified)
system.caches.RequestType.IFETCH.hit_latency_hist_seqr::mean     1.000030                       (Unspecified)
system.caches.RequestType.IFETCH.hit_latency_hist_seqr::gmean     1.000021                       (Unspecified)
system.caches.RequestType.IFETCH.hit_latency_hist_seqr::stdev     0.005488                       (Unspecified)
system.caches.RequestType.IFETCH.hit_latency_hist_seqr |           0      0.00%      0.00% |    22480733    100.00%    100.00% |         677      0.00%    100.00% |           0      0.00%    100.00% |           0      0.00%    100.00% |           0      0.00%    100.00% |           0      0.00%    100.00% |           0      0.00%    100.00% |           0      0.00%    100.00% |           0      0.00%    100.00% (Unspecified)
system.caches.RequestType.IFETCH.hit_latency_hist_seqr::total     22481410                       (Unspecified)
system.caches.RequestType.IFETCH.miss_latency_hist_seqr::bucket_size          512                       (Unspecified)
system.caches.RequestType.IFETCH.miss_latency_hist_seqr::max_bucket         5119                       (Unspecified)
system.caches.RequestType.IFETCH.miss_latency_hist_seqr::samples        74556                       (Unspecified)
system.caches.RequestType.IFETCH.miss_latency_hist_seqr::mean   139.226944                       (Unspecified)
system.caches.RequestType.IFETCH.miss_latency_hist_seqr::gmean    51.263061                       (Unspecified)
system.caches.RequestType.IFETCH.miss_latency_hist_seqr::stdev   182.419582                       (Unspecified)
system.caches.RequestType.IFETCH.miss_latency_hist_seqr |       72267     96.93%     96.93% |        1973      2.65%     99.58% |         212      0.28%     99.86% |          69      0.09%     99.95% |          25      0.03%     99.99% |          10      0.01%    100.00% |           0      0.00%    100.00% |           0      0.00%    100.00% |           0      0.00%    100.00% |           0      0.00%    100.00% (Unspecified)
system.caches.RequestType.IFETCH.miss_latency_hist_seqr::total        74556                       (Unspecified)
system.caches.RequestType.RMW_Read.latency_hist_seqr::bucket_size          512                       (Unspecified)
system.caches.RequestType.RMW_Read.latency_hist_seqr::max_bucket         5119                       (Unspecified)
system.caches.RequestType.RMW_Read.latency_hist_seqr::samples       396615                       (Unspecified)
system.caches.RequestType.RMW_Read.latency_hist_seqr::mean     7.983775                       (Unspecified)
system.caches.RequestType.RMW_Read.latency_hist_seqr::gmean     1.082161                       (Unspecified)
system.caches.RequestType.RMW_Read.latency_hist_seqr::stdev    89.369760                       (Unspecified)
system.caches.RequestType.RMW_Read.latency_hist_seqr |      394572     99.48%     99.48% |        1170      0.29%     99.78% |         476      0.12%     99.90% |         291      0.07%     99.97% |          73      0.02%     99.99% |          21      0.01%    100.00% |           8      0.00%    100.00% |           4      0.00%    100.00% |           0      0.00%    100.00% |           0      0.00%    100.00% (Unspecified)
system.caches.RequestType.RMW_Read.latency_hist_seqr::total       396615                       (Unspecified)
system.caches.RequestType.RMW_Read.hit_latency_hist_seqr::bucket_size          256                       (Unspecified)
system.caches.RequestType.RMW_Read.hit_latency_hist_seqr::max_bucket         2559                       (Unspecified)
system.caches.RequestType.RMW_Read.hit_latency_hist_seqr::samples       392249                       (Unspecified)
system.caches.RequestType.RMW_Read.hit_latency_hist_seqr::mean     1.674911                       (Unspecified)
[...]
system.o3Cpu7.iew.predictedTakenIncorrect         7990                       # Number of branches that were predicted taken incorrectly (Count)
system.o3Cpu7.iew.predictedNotTakenIncorrect         2931                       # Number of branches that were predicted not taken incorrectly (Count)
system.o3Cpu7.iew.branchMispredicts             10921                       # Number of branch mispredicts detected at execute (Count)
system.o3Cpu7.iew.instsToCommit              67721495                       # Cumulative count of insts sent to commit (Count)
system.o3Cpu7.iew.writebackCount             67719088                       # Cumulative count of insts written-back (Count)
system.o3Cpu7.iew.producerInst               43845658                       # Number of instructions producing a value (Count)
system.o3Cpu7.iew.consumerInst               65871532                       # Number of instructions consuming a value (Count)
system.o3Cpu7.iew.wbRate                     0.288532                       # Insts written-back per cycle ((Count/Cycle))
system.o3Cpu7.iew.wbFanout                   0.665624                       # Average fanout of values written-back ((Count/Count))
system.o3Cpu7.interrupts.clk_domain.clock         3200                       # Clock period in ticks (Tick)
system.o3Cpu7.lsq0.forwLoads                   475514                       # Number of loads that had data forwarded from stores (Count)
system.o3Cpu7.lsq0.squashedLoads                32794                       # Number of loads squashed (Count)
system.o3Cpu7.lsq0.ignoredResponses                34                       # Number of memory responses ignored because the instruction is squashed (Count)
system.o3Cpu7.lsq0.memOrderViolation             1353                       # Number of memory ordering violations (Count)
system.o3Cpu7.lsq0.squashedStores               27019                       # Number of stores squashed (Count)
system.o3Cpu7.lsq0.rescheduledLoads                35                       # Number of loads that were rescheduled (Count)
system.o3Cpu7.lsq0.blockedByCache              268195                       # Number of times an access to memory failed due to the cache being blocked (Count)
system.o3Cpu7.lsq0.loadToUse::samples        12967600                       # Distribution of cycle latency between the first time a load is issued and its completion (Unspecified)
system.o3Cpu7.lsq0.loadToUse::mean         133.473542                       # Distribution of cycle latency between the first time a load is issued and its completion (Unspecified)
system.o3Cpu7.lsq0.loadToUse::stdev        305.926428                       # Distribution of cycle latency between the first time a load is issued and its completion (Unspecified)
system.o3Cpu7.lsq0.loadToUse::0-9             9991535     77.05%     77.05% # Distribution of cycle latency between the first time a load is issued and its completion (Unspecified)
system.o3Cpu7.lsq0.loadToUse::10-19             55866      0.43%     77.48% # Distribution of cycle latency between the first time a load is issued and its completion (Unspecified)
system.o3Cpu7.lsq0.loadToUse::20-29             59829      0.46%     77.94% # Distribution of cycle latency between the first time a load is issued and its completion (Unspecified)
system.o3Cpu7.lsq0.loadToUse::30-39             21736      0.17%     78.11% # Distribution of cycle latency between the first time a load is issued and its completion (Unspecified)
system.o3Cpu7.lsq0.loadToUse::40-49             21969      0.17%     78.28% # Distribution of cycle latency between the first time a load is issued and its completion (Unspecified)
system.o3Cpu7.lsq0.loadToUse::50-59             17791      0.14%     78.42% # Distribution of cycle latency between the first time a load is issued and its completion (Unspecified)
system.o3Cpu7.lsq0.loadToUse::60-69             19256      0.15%     78.56% # Distribution of cycle latency between the first time a load is issued and its completion (Unspecified)
system.o3Cpu7.lsq0.loadToUse::70-79             13920      0.11%     78.67% # Distribution of cycle latency between the first time a load is issued and its completion (Unspecified)
system.o3Cpu7.lsq0.loadToUse::80-89             14923      0.12%     78.79% # Distribution of cycle latency between the first time a load is issued and its completion (Unspecified)
system.o3Cpu7.lsq0.loadToUse::90-99             13453      0.10%     78.89% # Distribution of cycle latency between the first time a load is issued and its completion (Unspecified)
system.o3Cpu7.lsq0.loadToUse::100-109           12717      0.10%     78.99% # Distribution of cycle latency between the first time a load is issued and its completion (Unspecified)
system.o3Cpu7.lsq0.loadToUse::110-119           13808      0.11%     79.10% # Distribution of cycle latency between the first time a load is issued and its completion (Unspecified)
system.o3Cpu7.lsq0.loadToUse::120-129           11385      0.09%     79.18% # Distribution of cycle latency between the first time a load is issued and its completion (Unspecified)
system.o3Cpu7.lsq0.loadToUse::130-139           11996      0.09%     79.28% # Distribution of cycle latency between the first time a load is issued and its completion (Unspecified)
system.o3Cpu7.lsq0.loadToUse::140-149           10713      0.08%     79.36% # Distribution of cycle latency between the first time a load is issued and its completion (Unspecified)
system.o3Cpu7.lsq0.loadToUse::150-159           10998      0.08%     79.44% # Distribution of cycle latency between the first time a load is issued and its completion (Unspecified)
system.o3Cpu7.lsq0.loadToUse::160-169           11345      0.09%     79.53% # Distribution of cycle latency between the first time a load is issued and its completion (Unspecified)
system.o3Cpu7.lsq0.loadToUse::170-179            9519      0.07%     79.60% # Distribution of cycle latency between the first time a load is issued and its completion (Unspecified)
system.o3Cpu7.lsq0.loadToUse::180-189            9973      0.08%     79.68% # Distribution of cycle latency between the first time a load is issued and its completion (Unspecified)
system.o3Cpu7.lsq0.loadToUse::190-199           11239      0.09%     79.77% # Distribution of cycle latency between the first time a load is issued and its completion (Unspecified)
system.o3Cpu7.lsq0.loadToUse::200-209           10064      0.08%     79.85% # Distribution of cycle latency between the first time a load is issued and its completion (Unspecified)
system.o3Cpu7.lsq0.loadToUse::210-219           17215      0.13%     79.98% # Distribution of cycle latency between the first time a load is issued and its completion (Unspecified)
system.o3Cpu7.lsq0.loadToUse::220-229           10675      0.08%     80.06% # Distribution of cycle latency between the first time a load is issued and its completion (Unspecified)
system.o3Cpu7.lsq0.loadToUse::230-239           10915      0.08%     80.14% # Distribution of cycle latency between the first time a load is issued and its completion (Unspecified)
system.o3Cpu7.lsq0.loadToUse::240-249           11092      0.09%     80.23% # Distribution of cycle latency between the first time a load is issued and its completion (Unspecified)
system.o3Cpu7.lsq0.loadToUse::250-259            9890      0.08%     80.31% # Distribution of cycle latency between the first time a load is issued and its completion (Unspecified)
system.o3Cpu7.lsq0.loadToUse::260-269            9692      0.07%     80.38% # Distribution of cycle latency between the first time a load is issued and its completion (Unspecified)
system.o3Cpu7.lsq0.loadToUse::270-279            9655      0.07%     80.46% # Distribution of cycle latency between the first time a load is issued and its completion (Unspecified)
system.o3Cpu7.lsq0.loadToUse::280-289           10665      0.08%     80.54% # Distribution of cycle latency between the first time a load is issued and its completion (Unspecified)
system.o3Cpu7.lsq0.loadToUse::290-299           13447      0.10%     80.64% # Distribution of cycle latency between the first time a load is issued and its completion (Unspecified)
system.o3Cpu7.lsq0.loadToUse::overflows       2510319     19.36%    100.00% # Distribution of cycle latency between the first time a load is issued and its completion (Unspecified)
system.o3Cpu7.lsq0.loadToUse::min_value             2                       # Distribution of cycle latency between the first time a load is issued and its completion (Unspecified)
system.o3Cpu7.lsq0.loadToUse::max_value          5378                       # Distribution of cycle latency between the first time a load is issued and its completion (Unspecified)
system.o3Cpu7.lsq0.loadToUse::total          12967600                       # Distribution of cycle latency between the first time a load is issued and its completion (Unspecified)
system.o3Cpu7.mmu.dtb.rdAccesses             12995188                       # TLB accesses on read requests (Count)
system.o3Cpu7.mmu.dtb.wrAccesses              8810895                       # TLB accesses on write requests (Count)
system.o3Cpu7.mmu.dtb.rdMisses                   3506                       # TLB misses on read requests (Count)
system.o3Cpu7.mmu.dtb.wrMisses                   1488                       # TLB misses on write requests (Count)
system.o3Cpu7.mmu.dtb.walker.power_state.pwrStateResidencyTicks::UNDEFINED  48195656000                       # Cumulative time (in ticks) in various power states (Tick)
system.o3Cpu7.mmu.itb.rdAccesses                    0                       # TLB accesses on read requests (Count)
system.o3Cpu7.mmu.itb.wrAccesses              2883478                       # TLB accesses on write requests (Count)
system.o3Cpu7.mmu.itb.rdMisses                      0                       # TLB misses on read requests (Count)
system.o3Cpu7.mmu.itb.wrMisses                    196                       # TLB misses on write requests (Count)
system.o3Cpu7.mmu.itb.walker.power_state.pwrStateResidencyTicks::UNDEFINED  48195656000                       # Cumulative time (in ticks) in various power states (Tick)
system.o3Cpu7.power_state.numTransitions            4                       # Number of power state transitions (Count)
system.o3Cpu7.power_state.ticksClkGated::samples            2                       # Distribution of time spent in the clock gated state (Tick)
system.o3Cpu7.power_state.ticksClkGated::mean    121594700                       # Distribution of time spent in the clock gated state (Tick)
system.o3Cpu7.power_state.ticksClkGated::stdev 1637800.726584                       # Distribution of time spent in the clock gated state (Tick)
system.o3Cpu7.power_state.ticksClkGated::1000-5e+10            2    100.00%    100.00% # Distribution of time spent in the clock gated state (Tick)
system.o3Cpu7.power_state.ticksClkGated::min_value    120436600                       # Distribution of time spent in the clock gated state (Tick)
system.o3Cpu7.power_state.ticksClkGated::max_value    122752800                       # Distribution of time spent in the clock gated state (Tick)
system.o3Cpu7.power_state.ticksClkGated::total            2                       # Distribution of time spent in the clock gated state (Tick)
system.o3Cpu7.power_state.pwrStateResidencyTicks::ON  45899350600                       # Cumulative time (in ticks) in various power states (Tick)
system.o3Cpu7.power_state.pwrStateResidencyTicks::CLK_GATED    243189400                       # Cumulative time (in ticks) in various power states (Tick)
system.o3Cpu7.power_state.pwrStateResidencyTicks::OFF   2053116000                       # Cumulative time (in ticks) in various power states (Tick)
system.o3Cpu7.rename.squashCycles               12107                       # Number of cycles rename is squashing (Cycle)
system.o3Cpu7.rename.idleCycles               3990485                       # Number of cycles rename is idle (Cycle)
system.o3Cpu7.rename.blockCycles             37770861                       # Number of cycles rename is blocking (Cycle)
system.o3Cpu7.rename.serializeStallCycles       495614                       # count of cycles rename stalled for serializing inst (Cycle)
system.o3Cpu7.rename.runCycles                8148400                       # Number of cycles rename is running (Cycle)
system.o3Cpu7.rename.unblockCycles          179213077                       # Number of cycles rename is unblocking (Cycle)
system.o3Cpu7.rename.renamedInsts            67861611                       # Number of instructions processed by rename (Count)
system.o3Cpu7.rename.ROBFullEvents              19031                       # Number of times rename has blocked due to ROB full (Count)
system.o3Cpu7.rename.IQFullEvents             3221690                       # Number of times rename has blocked due to IQ full (Count)
system.o3Cpu7.rename.LQFullEvents            19346568                       # Number of times rename has blocked due to LQ full (Count)
system.o3Cpu7.rename.SQFullEvents           158608951                       # Number of times rename has blocked due to SQ full (Count)
system.o3Cpu7.rename.renamedOperands         91777542                       # Number of destination operands rename has renamed (Count)
system.o3Cpu7.rename.lookups                208931996                       # Number of register rename lookups that rename has made (Count)
system.o3Cpu7.rename.intLookups              52024767                       # Number of integer rename lookups (Count)
system.o3Cpu7.rename.fpLookups               52967528                       # Number of floating rename lookups (Count)
system.o3Cpu7.rename.committedMaps           91307787                       # Number of HB maps that are committed (Count)
system.o3Cpu7.rename.undoneMaps                469731                       # Number of HB maps that are undone due to squashing (Count)
system.o3Cpu7.rename.serializing                 2509                       # count of serializing insts renamed (Count)
system.o3Cpu7.rename.tempSerializing             2624                       # count of temporary serializing insts renamed (Count)
system.o3Cpu7.rename.skidInsts               20753496                       # count of insts added to the skid buffer (Count)
system.o3Cpu7.rob.reads                     294614219                       # The number of ROB reads (Count)
system.o3Cpu7.rob.writes                    135625200                       # The number of ROB writes (Count)
system.o3Cpu7.thread_0.numInsts              40612449                       # Number of Instructions committed (Count)
system.o3Cpu7.thread_0.numOps                67589820                       # Number of Ops committed (Count)
system.o3Cpu7.thread_0.numMemRefs                   0                       # Number of Memory References (Count)
system.pc.bad_addr.power_state.pwrStateResidencyTicks::UNDEFINED  48195656000                       # Cumulative time (in ticks) in various power states (Tick)
system.pc.com_1.power_state.pwrStateResidencyTicks::UNDEFINED  48195656000                       # Cumulative time (in ticks) in various power states (Tick)
system.pc.default_bus.power_state.pwrStateResidencyTicks::UNDEFINED  48195656000                       # Cumulative time (in ticks) in various power states (Tick)
system.pc.empty_isa.power_state.pwrStateResidencyTicks::UNDEFINED  48195656000                       # Cumulative time (in ticks) in various power states (Tick)
system.pc.fake_com_2.power_state.pwrStateResidencyTicks::UNDEFINED  48195656000                       # Cumulative time (in ticks) in various power states (Tick)
system.pc.fake_com_3.power_state.pwrStateResidencyTicks::UNDEFINED  48195656000                       # Cumulative time (in ticks) in various power states (Tick)
system.pc.fake_com_4.power_state.pwrStateResidencyTicks::UNDEFINED  48195656000                       # Cumulative time (in ticks) in various power states (Tick)
system.pc.fake_floppy.power_state.pwrStateResidencyTicks::UNDEFINED  48195656000                       # Cumulative time (in ticks) in various power states (Tick)
system.pc.pci_host.power_state.pwrStateResidencyTicks::UNDEFINED  48195656000                       # Cumulative time (in ticks) in various power states (Tick)
system.pc.south_bridge.cmos.power_state.pwrStateResidencyTicks::UNDEFINED  48195656000                       # Cumulative time (in ticks) in various power states (Tick)
system.pc.south_bridge.dma1.power_state.pwrStateResidencyTicks::UNDEFINED  48195656000                       # Cumulative time (in ticks) in various power states (Tick)
system.pc.south_bridge.ide.disks0.IdeDisk.dmaReadFullPages            0                       # Number of full page size DMA reads (not PRD). (Count)
system.pc.south_bridge.ide.disks0.IdeDisk.dmaReadBytes            0                       # Number of bytes transfered via DMA reads (not PRD). (Byte)
system.pc.south_bridge.ide.disks0.IdeDisk.dmaReadTxs            0                       # Number of DMA read transactions (not PRD). (Count)
system.pc.south_bridge.ide.disks0.IdeDisk.dmaWriteFullPages            0                       # Number of full page size DMA writes. (Count)
system.pc.south_bridge.ide.disks0.IdeDisk.dmaWriteBytes            0                       # Number of bytes transfered via DMA writes. (Byte)
system.pc.south_bridge.ide.disks0.IdeDisk.dmaWriteTxs            0                       # Number of DMA write transactions. (Count)
system.pc.south_bridge.ide.disks1.IdeDisk.dmaReadFullPages            0                       # Number of full page size DMA reads (not PRD). (Count)
system.pc.south_bridge.ide.disks1.IdeDisk.dmaReadBytes            0                       # Number of bytes transfered via DMA reads (not PRD). (Byte)
system.pc.south_bridge.ide.disks1.IdeDisk.dmaReadTxs            0                       # Number of DMA read transactions (not PRD). (Count)
system.pc.south_bridge.ide.disks1.IdeDisk.dmaWriteFullPages            0                       # Number of full page size DMA writes. (Count)
system.pc.south_bridge.ide.disks1.IdeDisk.dmaWriteBytes            0                       # Number of bytes transfered via DMA writes. (Byte)
system.pc.south_bridge.ide.disks1.IdeDisk.dmaWriteTxs            0                       # Number of DMA write transactions. (Count)
system.pc.south_bridge.ide.power_state.pwrStateResidencyTicks::UNDEFINED  48195656000                       # Cumulative time (in ticks) in various power states (Tick)
system.pc.south_bridge.io_apic.power_state.pwrStateResidencyTicks::UNDEFINED  48195656000                       # Cumulative time (in ticks) in various power states (Tick)
system.pc.south_bridge.keyboard.power_state.pwrStateResidencyTicks::UNDEFINED  48195656000                       # Cumulative time (in ticks) in various power states (Tick)
system.pc.south_bridge.pic1.power_state.pwrStateResidencyTicks::UNDEFINED  48195656000                       # Cumulative time (in ticks) in various power states (Tick)
system.pc.south_bridge.pic2.power_state.pwrStateResidencyTicks::UNDEFINED  48195656000                       # Cumulative time (in ticks) in various power states (Tick)
system.pc.south_bridge.pit.power_state.pwrStateResidencyTicks::UNDEFINED  48195656000                       # Cumulative time (in ticks) in various power states (Tick)
system.pc.south_bridge.speaker.power_state.pwrStateResidencyTicks::UNDEFINED  48195656000                       # Cumulative time (in ticks) in various power states (Tick)
system.workload.inst.arm                            0                       # number of arm instructions executed (Count)
system.workload.inst.quiesce                        0                       # number of quiesce instructions executed (Count)

---------- End Simulation Statistics   ----------
