
---------- Begin Simulation Statistics ----------
simSeconds                                   0.047787                       # Number of seconds simulated (Second)
simTicks                                  47787160600                       # Number of ticks simulated (Tick)
finalTick                                95850875122000                       # Number of ticks from beginning of simulation (restored from checkpoints and never reset) (Tick)
simFreq                                  1000000000000                       # The number of ticks per simulated second ((Tick/Second))
hostSeconds                                  10740.44                       # Real time elapsed on the host (Second)
hostTickRate                                  4449274                       # The number of ticks simulated per host second (ticks/s) ((Tick/Second))
hostMemory                                   19980888                       # Number of bytes of host memory used (Byte)
simInsts                                    388572128                       # Number of instructions simulated (Count)
simOps                                      680389116                       # Number of ops (including micro ops) simulated (Count)
hostInstRate                                    36178                       # Simulator instruction rate (inst/s) ((Count/Second))
hostOpRate                                      63348                       # Simulator op (including micro ops) rate (op/s) ((Count/Second))
system.caches.delayHistogram::bucket_size            8                       # delay histogram for all message (Unspecified)
system.caches.delayHistogram::max_bucket           79                       # delay histogram for all message (Unspecified)
system.caches.delayHistogram::samples        21157445                       # delay histogram for all message (Unspecified)
system.caches.delayHistogram::mean           0.011770                       # delay histogram for all message (Unspecified)
system.caches.delayHistogram::stdev          0.311965                       # delay histogram for all message (Unspecified)
system.caches.delayHistogram             |    21139434     99.91%     99.91% |       17689      0.08%    100.00% |         107      0.00%    100.00% |          70      0.00%    100.00% |          38      0.00%    100.00% |          19      0.00%    100.00% |          24      0.00%    100.00% |          39      0.00%    100.00% |          25      0.00%    100.00% |           0      0.00%    100.00% # delay histogram for all message (Unspecified)
system.caches.delayHistogram::total          21157445                       # delay histogram for all message (Unspecified)
system.caches.m_outstandReqHistSeqr::bucket_size            2                       (Unspecified)
system.caches.m_outstandReqHistSeqr::max_bucket           19                       (Unspecified)
system.caches.m_outstandReqHistSeqr::samples    146000520                       (Unspecified)
system.caches.m_outstandReqHistSeqr::mean     1.049019                       (Unspecified)
system.caches.m_outstandReqHistSeqr::gmean     1.032977                       (Unspecified)
system.caches.m_outstandReqHistSeqr::stdev     0.262357                       (Unspecified)
system.caches.m_outstandReqHistSeqr      |   139381144     95.47%     95.47% |     6508376      4.46%     99.92% |       61940      0.04%     99.97% |       24392      0.02%     99.98% |       13130      0.01%     99.99% |        5621      0.00%    100.00% |        2986      0.00%    100.00% |        1756      0.00%    100.00% |        1175      0.00%    100.00% |           0      0.00%    100.00% (Unspecified)
system.caches.m_outstandReqHistSeqr::total    146000520                       (Unspecified)
system.caches.m_latencyHistSeqr::bucket_size          512                       (Unspecified)
system.caches.m_latencyHistSeqr::max_bucket         5119                       (Unspecified)
system.caches.m_latencyHistSeqr::samples    146005273                       (Unspecified)
system.caches.m_latencyHistSeqr::mean       12.113485                       (Unspecified)
system.caches.m_latencyHistSeqr::gmean       1.139226                       (Unspecified)
system.caches.m_latencyHistSeqr::stdev      82.924467                       (Unspecified)
system.caches.m_latencyHistSeqr          |   145358625     99.56%     99.56% |      535554      0.37%     99.92% |       33670      0.02%     99.95% |       75771      0.05%    100.00% |        1312      0.00%    100.00% |         323      0.00%    100.00% |          18      0.00%    100.00% |           0      0.00%    100.00% |           0      0.00%    100.00% |           0      0.00%    100.00% (Unspecified)
system.caches.m_latencyHistSeqr::total      146005273                       (Unspecified)
system.caches.m_hitLatencyHistSeqr::bucket_size          256                       (Unspecified)
system.caches.m_hitLatencyHistSeqr::max_bucket         2559                       (Unspecified)
system.caches.m_hitLatencyHistSeqr::samples    142936491                       (Unspecified)
system.caches.m_hitLatencyHistSeqr::mean     1.001124                       (Unspecified)
system.caches.m_hitLatencyHistSeqr::gmean     1.000040                       (Unspecified)
system.caches.m_hitLatencyHistSeqr::stdev     0.793264                       (Unspecified)
system.caches.m_hitLatencyHistSeqr       |   142936192    100.00%    100.00% |         192      0.00%    100.00% |          87      0.00%    100.00% |          12      0.00%    100.00% |           1      0.00%    100.00% |           3      0.00%    100.00% |           3      0.00%    100.00% |           1      0.00%    100.00% |           0      0.00%    100.00% |           0      0.00%    100.00% (Unspecified)
system.caches.m_hitLatencyHistSeqr::total    142936491                       (Unspecified)
system.caches.m_missLatencyHistSeqr::bucket_size          512                       (Unspecified)
system.caches.m_missLatencyHistSeqr::max_bucket         5119                       (Unspecified)
system.caches.m_missLatencyHistSeqr::samples      3068782                       (Unspecified)
system.caches.m_missLatencyHistSeqr::mean   529.700537                       (Unspecified)
system.caches.m_missLatencyHistSeqr::gmean   492.667581                       (Unspecified)
system.caches.m_missLatencyHistSeqr::stdev   231.275860                       (Unspecified)
system.caches.m_missLatencyHistSeqr      |     2422241     78.93%     78.93% |      535455     17.45%     96.38% |       33666      1.10%     97.48% |       75767      2.47%     99.95% |        1312      0.04%     99.99% |         323      0.01%    100.00% |          18      0.00%    100.00% |           0      0.00%    100.00% |           0      0.00%    100.00% |           0      0.00%    100.00% (Unspecified)
system.caches.m_missLatencyHistSeqr::total      3068782                       (Unspecified)
system.caches.delayVCHist.vnet_0::bucket_size            8                       # delay histogram for vnet_0 (Unspecified)
system.caches.delayVCHist.vnet_0::max_bucket           79                       # delay histogram for vnet_0 (Unspecified)
system.caches.delayVCHist.vnet_0::samples      9069498                       # delay histogram for vnet_0 (Unspecified)
system.caches.delayVCHist.vnet_0::mean       0.017743                       # delay histogram for vnet_0 (Unspecified)
system.caches.delayVCHist.vnet_0::stdev      0.417290                       # delay histogram for vnet_0 (Unspecified)
system.caches.delayVCHist.vnet_0         |     9052253     99.81%     99.81% |       17031      0.19%    100.00% |          27      0.00%    100.00% |          46      0.00%    100.00% |          35      0.00%    100.00% |          18      0.00%    100.00% |          24      0.00%    100.00% |          39      0.00%    100.00% |          25      0.00%    100.00% |           0      0.00%    100.00% # delay histogram for vnet_0 (Unspecified)
system.caches.delayVCHist.vnet_0::total       9069498                       # delay histogram for vnet_0 (Unspecified)
system.caches.delayVCHist.vnet_1::bucket_size            8                       # delay histogram for vnet_1 (Unspecified)
system.caches.delayVCHist.vnet_1::max_bucket           79                       # delay histogram for vnet_1 (Unspecified)
system.caches.delayVCHist.vnet_1::samples     12035635                       # delay histogram for vnet_1 (Unspecified)
system.caches.delayVCHist.vnet_1::mean       0.007320                       # delay histogram for vnet_1 (Unspecified)
system.caches.delayVCHist.vnet_1::stdev      0.199545                       # delay histogram for vnet_1 (Unspecified)
system.caches.delayVCHist.vnet_1         |    12034869     99.99%     99.99% |         658      0.01%    100.00% |          80      0.00%    100.00% |          24      0.00%    100.00% |           3      0.00%    100.00% |           1      0.00%    100.00% |           0      0.00%    100.00% |           0      0.00%    100.00% |           0      0.00%    100.00% |           0      0.00%    100.00% # delay histogram for vnet_1 (Unspecified)
system.caches.delayVCHist.vnet_1::total      12035635                       # delay histogram for vnet_1 (Unspecified)
system.caches.delayVCHist.vnet_2::bucket_size            1                       # delay histogram for vnet_2 (Unspecified)
system.caches.delayVCHist.vnet_2::max_bucket            9                       # delay histogram for vnet_2 (Unspecified)
system.caches.delayVCHist.vnet_2::samples        52312                       # delay histogram for vnet_2 (Unspecified)
system.caches.delayVCHist.vnet_2         |       52312    100.00%    100.00% |           0      0.00%    100.00% |           0      0.00%    100.00% |           0      0.00%    100.00% |           0      0.00%    100.00% |           0      0.00%    100.00% |           0      0.00%    100.00% |           0      0.00%    100.00% |           0      0.00%    100.00% |           0      0.00%    100.00% # delay histogram for vnet_2 (Unspecified)
system.caches.delayVCHist.vnet_2::total         52312                       # delay histogram for vnet_2 (Unspecified)
system.caches.L1Cache_Controller.Load    |     6103831     12.52%     12.52% |     6091974     12.49%     25.01% |     6096777     12.50%     37.51% |     6096004     12.50%     50.01% |     6096510     12.50%     62.51% |     6098021     12.50%     75.01% |     6092157     12.49%     87.50% |     6094812     12.50%    100.00% (Unspecified)
system.caches.L1Cache_Controller.Load::total     48770086                       (Unspecified)
system.caches.L1Cache_Controller.Ifetch  |       31730     15.70%     15.70% |       24218     11.98%     27.68% |       24214     11.98%     39.65% |       25223     12.48%     52.13% |       24346     12.04%     64.18% |       24348     12.04%     76.22% |       24377     12.06%     88.28% |       23693     11.72%    100.00% (Unspecified)
system.caches.L1Cache_Controller.Ifetch::total       202149                       (Unspecified)
system.caches.L1Cache_Controller.Store   |    12133884     12.50%     12.50% |    12121356     12.49%     25.00% |    12133076     12.50%     37.50% |    12127910     12.50%     50.00% |    12131240     12.50%     62.50% |    12134626     12.51%     75.01% |    12123083     12.49%     87.50% |    12127869     12.50%    100.00% (Unspecified)
system.caches.L1Cache_Controller.Store::total     97033044                       (Unspecified)
system.caches.L1Cache_Controller.Inv     |        5006      9.72%      9.72% |        7168     13.91%     23.63% |       11665     22.64%     46.27% |        5349     10.38%     56.65% |        6511     12.64%     69.29% |        5068      9.84%     79.13% |        5818     11.29%     90.42% |        4935      9.58%    100.00% (Unspecified)
system.caches.L1Cache_Controller.Inv::total        51520                       (Unspecified)
system.caches.L1Cache_Controller.L1_Replacement |      379856     12.76%     12.76% |      370871     12.46%     25.21% |      371176     12.47%     37.68% |      371084     12.46%     50.14% |      371189     12.47%     62.61% |      371286     12.47%     75.08% |      370945     12.46%     87.54% |      371108     12.46%    100.00% (Unspecified)
system.caches.L1Cache_Controller.L1_Replacement::total      2977515                       (Unspecified)
system.caches.L1Cache_Controller.Fwd_GETS |         289     36.49%     36.49% |         247     31.19%     67.68% |          62      7.83%     75.51% |          22      2.78%     78.28% |           1      0.13%     78.41% |          16      2.02%     80.43% |          60      7.58%     88.01% |          95     11.99%    100.00% (Unspecified)
system.caches.L1Cache_Controller.Fwd_GETS::total          792                       (Unspecified)
system.caches.L1Cache_Controller.Data    |           3    100.00%    100.00% |           0      0.00%    100.00% |           0      0.00%    100.00% |           0      0.00%    100.00% |           0      0.00%    100.00% |           0      0.00%    100.00% |           0      0.00%    100.00% |           0      0.00%    100.00% (Unspecified)
system.caches.L1Cache_Controller.Data::total            3                       (Unspecified)
system.caches.L1Cache_Controller.Data_Exclusive |      379486     12.50%     12.50% |      379391     12.50%     25.00% |      379554     12.50%     37.50% |      379404     12.50%     50.00% |      379490     12.50%     62.50% |      379604     12.50%     75.01% |      379273     12.49%     87.50% |      379420     12.50%    100.00% (Unspecified)
system.caches.L1Cache_Controller.Data_Exclusive::total      3035622                       (Unspecified)
system.caches.L1Cache_Controller.DataS_fromL1 |          48      6.06%      6.06% |          62      7.83%     13.89% |           5      0.63%     14.52% |          21      2.65%     17.17% |          27      3.41%     20.58% |         284     35.86%     56.44% |         105     13.26%     69.70% |         240     30.30%    100.00% (Unspecified)
system.caches.L1Cache_Controller.DataS_fromL1::total          792                       (Unspecified)
system.caches.L1Cache_Controller.Data_all_Acks |        4758     14.79%     14.79% |        3804     11.82%     26.61% |        4000     12.43%     39.05% |        4034     12.54%     51.59% |        4045     12.57%     64.16% |        3788     11.77%     75.93% |        3974     12.35%     88.29% |        3768     11.71%    100.00% (Unspecified)
system.caches.L1Cache_Controller.Data_all_Acks::total        32171                       (Unspecified)
system.caches.L1Cache_Controller.Ack     |        1361    100.00%    100.00% |           0      0.00%    100.00% |           0      0.00%    100.00% |           0      0.00%    100.00% |           0      0.00%    100.00% |           0      0.00%    100.00% |           0      0.00%    100.00% |           0      0.00%    100.00% (Unspecified)
system.caches.L1Cache_Controller.Ack::total         1361                       (Unspecified)
system.caches.L1Cache_Controller.Ack_all |         197    100.00%    100.00% |           0      0.00%    100.00% |           0      0.00%    100.00% |           0      0.00%    100.00% |           0      0.00%    100.00% |           0      0.00%    100.00% |           0      0.00%    100.00% |           0      0.00%    100.00% (Unspecified)
system.caches.L1Cache_Controller.Ack_all::total          197                       (Unspecified)
system.caches.L1Cache_Controller.WB_Ack  |      378593     12.81%     12.81% |      367401     12.43%     25.24% |      363249     12.29%     37.53% |      369447     12.50%     50.03% |      368395     12.46%     62.49% |      369952     12.52%     75.01% |      368854     12.48%     87.49% |      369803     12.51%    100.00% (Unspecified)
system.caches.L1Cache_Controller.WB_Ack::total      2955694                       (Unspecified)
system.caches.L1Cache_Controller.NP.Load |      379250     12.50%     12.50% |      378916     12.49%     25.00% |      379217     12.50%     37.50% |      379109     12.50%     50.00% |      379213     12.50%     62.50% |      379309     12.51%     75.01% |      378985     12.49%     87.50% |      379146     12.50%    100.00% (Unspecified)
system.caches.L1Cache_Controller.NP.Load::total      3033145                       (Unspecified)
system.caches.L1Cache_Controller.NP.Ifetch |         644     19.47%     19.47% |         401     12.13%     31.60% |         368     11.13%     42.73% |         387     11.70%     54.43% |         383     11.58%     66.01% |         369     11.16%     77.17% |         385     11.64%     88.81% |         370     11.19%    100.00% (Unspecified)
system.caches.L1Cache_Controller.NP.Ifetch::total         3307                       (Unspecified)
system.caches.L1Cache_Controller.NP.Store |         150     31.38%     31.38% |          51     10.67%     42.05% |          27      5.65%     47.70% |          53     11.09%     58.79% |          49     10.25%     69.04% |          45      9.41%     78.45% |          55     11.51%     89.96% |          48     10.04%    100.00% (Unspecified)
system.caches.L1Cache_Controller.NP.Store::total          478                       (Unspecified)
system.caches.L1Cache_Controller.NP.Inv  |          35      9.33%      9.33% |          40     10.67%     20.00% |          46     12.27%     32.27% |          66     17.60%     49.87% |          59     15.73%     65.60% |          60     16.00%     81.60% |          41     10.93%     92.53% |          28      7.47%    100.00% (Unspecified)
system.caches.L1Cache_Controller.NP.Inv::total          375                       (Unspecified)
system.caches.L1Cache_Controller.I.Load  |        1082     11.56%     11.56% |        1163     12.43%     23.99% |        1191     12.73%     36.72% |        1186     12.68%     49.40% |        1190     12.72%     62.11% |        1224     13.08%     75.20% |        1180     12.61%     87.81% |        1141     12.19%    100.00% (Unspecified)
system.caches.L1Cache_Controller.I.Load::total         9357                       (Unspecified)
system.caches.L1Cache_Controller.I.Ifetch |        2147     14.93%     14.93% |        1733     12.05%     26.99% |        1748     12.16%     39.15% |        1752     12.19%     51.34% |        1750     12.17%     63.51% |        1747     12.15%     75.66% |        1755     12.21%     87.87% |        1744     12.13%    100.00% (Unspecified)
system.caches.L1Cache_Controller.I.Ifetch::total        14376                       (Unspecified)
system.caches.L1Cache_Controller.I.Store |        1023     12.90%     12.90% |         994     12.53%     25.43% |        1008     12.71%     38.14% |         973     12.27%     50.41% |         977     12.32%     62.73% |         983     12.39%     75.12% |         993     12.52%     87.64% |         980     12.36%    100.00% (Unspecified)
system.caches.L1Cache_Controller.I.Store::total         7931                       (Unspecified)
system.caches.L1Cache_Controller.I.L1_Replacement |         484      2.74%      2.74% |        2988     16.93%     19.68% |        7454     42.25%     61.92% |        1148      6.51%     68.43% |        2316     13.13%     81.56% |         838      4.75%     86.31% |        1610      9.12%     95.43% |         806      4.57%    100.00% (Unspecified)
system.caches.L1Cache_Controller.I.L1_Replacement::total        17644                       (Unspecified)
system.caches.L1Cache_Controller.S.Load  |       11844     11.17%     11.17% |       12853     12.12%     23.28% |       13303     12.54%     35.82% |       13835     13.04%     48.86% |       13816     13.02%     61.89% |       13621     12.84%     74.73% |       13422     12.65%     87.38% |       13384     12.62%    100.00% (Unspecified)
system.caches.L1Cache_Controller.S.Load::total       106078                       (Unspecified)
system.caches.L1Cache_Controller.S.Ifetch |       28939     15.69%     15.69% |       22084     11.97%     27.66% |       22098     11.98%     39.64% |       23084     12.51%     52.15% |       22213     12.04%     64.20% |       22232     12.05%     76.25% |       22237     12.05%     88.30% |       21579     11.70%    100.00% (Unspecified)
system.caches.L1Cache_Controller.S.Ifetch::total       184466                       (Unspecified)
system.caches.L1Cache_Controller.S.Store |         194    100.00%    100.00% |           0      0.00%    100.00% |           0      0.00%    100.00% |           0      0.00%    100.00% |           0      0.00%    100.00% |           0      0.00%    100.00% |           0      0.00%    100.00% |           0      0.00%    100.00% (Unspecified)
system.caches.L1Cache_Controller.S.Store::total          194                       (Unspecified)
system.caches.L1Cache_Controller.S.Inv   |        2757     13.46%     13.46% |        2547     12.43%     25.89% |        2522     12.31%     38.20% |        2521     12.31%     50.51% |        2528     12.34%     62.85% |        2523     12.32%     75.16% |        2559     12.49%     87.65% |        2529     12.35%    100.00% (Unspecified)
system.caches.L1Cache_Controller.S.Inv::total        20486                       (Unspecified)
system.caches.L1Cache_Controller.S.L1_Replacement |         779     18.65%     18.65% |         482     11.54%     30.20% |         473     11.33%     41.52% |         489     11.71%     53.23% |         478     11.45%     64.68% |         496     11.88%     76.56% |         481     11.52%     88.07% |         498     11.93%    100.00% (Unspecified)
system.caches.L1Cache_Controller.S.L1_Replacement::total         4176                       (Unspecified)
system.caches.L1Cache_Controller.E.Load  |     5685985     12.50%     12.50% |     5684918     12.49%     24.99% |     5689618     12.50%     37.50% |     5687414     12.50%     50.00% |     5688672     12.50%     62.50% |     5690246     12.51%     75.00% |     5685068     12.49%     87.50% |     5687607     12.50%    100.00% (Unspecified)
system.caches.L1Cache_Controller.E.Load::total     45499528                       (Unspecified)
system.caches.L1Cache_Controller.E.Store |         248     18.96%     18.96% |         144     11.01%     29.97% |         159     12.16%     42.13% |         151     11.54%     53.67% |         153     11.70%     65.37% |         170     13.00%     78.36% |         142     10.86%     89.22% |         141     10.78%    100.00% (Unspecified)
system.caches.L1Cache_Controller.E.Store::total         1308                       (Unspecified)
system.caches.L1Cache_Controller.E.Inv   |         769      3.62%      3.62% |        3447     16.24%     19.87% |        7923     37.33%     57.20% |        1639      7.72%     64.92% |        2796     13.17%     78.09% |        1328      6.26%     84.35% |        2071      9.76%     94.11% |        1250      5.89%    100.00% (Unspecified)
system.caches.L1Cache_Controller.E.Inv::total        21223                       (Unspecified)
system.caches.L1Cache_Controller.E.L1_Replacement |      362352     12.33%     12.33% |      367363     12.50%     24.83% |      363231     12.36%     37.19% |      369401     12.57%     49.75% |      368354     12.53%     62.29% |      369911     12.59%     74.87% |      368812     12.55%     87.42% |      369760     12.58%    100.00% (Unspecified)
system.caches.L1Cache_Controller.E.L1_Replacement::total      2939184                       (Unspecified)
system.caches.L1Cache_Controller.E.Fwd_GETS |          92     15.46%     15.46% |         247     41.51%     56.97% |          62     10.42%     67.39% |          22      3.70%     71.09% |           1      0.17%     71.26% |          16      2.69%     73.95% |          60     10.08%     84.03% |          95     15.97%    100.00% (Unspecified)
system.caches.L1Cache_Controller.E.Fwd_GETS::total          595                       (Unspecified)
system.caches.L1Cache_Controller.M.Load  |       25670     21.04%     21.04% |       14124     11.58%     32.62% |       13448     11.02%     43.65% |       14460     11.85%     55.50% |       13619     11.17%     66.67% |       13621     11.17%     77.84% |       13502     11.07%     88.90% |       13534     11.10%    100.00% (Unspecified)
system.caches.L1Cache_Controller.M.Load::total       121978                       (Unspecified)
system.caches.L1Cache_Controller.M.Store |    12132269     12.50%     12.50% |    12120167     12.49%     25.00% |    12131882     12.50%     37.50% |    12126733     12.50%     50.00% |    12130061     12.50%     62.50% |    12133428     12.51%     75.01% |    12121893     12.49%     87.50% |    12126700     12.50%    100.00% (Unspecified)
system.caches.L1Cache_Controller.M.Store::total     97023133                       (Unspecified)
system.caches.L1Cache_Controller.M.Inv   |        1445     15.33%     15.33% |        1134     12.03%     27.36% |        1172     12.43%     39.79% |        1121     11.89%     51.69% |        1126     11.95%     63.63% |        1155     12.25%     75.89% |        1147     12.17%     88.05% |        1126     11.95%    100.00% (Unspecified)
system.caches.L1Cache_Controller.M.Inv::total         9426                       (Unspecified)
system.caches.L1Cache_Controller.M.L1_Replacement |       16241     98.36%     98.36% |          38      0.23%     98.59% |          18      0.11%     98.70% |          46      0.28%     98.98% |          41      0.25%     99.23% |          41      0.25%     99.48% |          42      0.25%     99.73% |          44      0.27%    100.00% (Unspecified)
system.caches.L1Cache_Controller.M.L1_Replacement::total        16511                       (Unspecified)
system.caches.L1Cache_Controller.M.Fwd_GETS |         197    100.00%    100.00% |           0      0.00%    100.00% |           0      0.00%    100.00% |           0      0.00%    100.00% |           0      0.00%    100.00% |           0      0.00%    100.00% |           0      0.00%    100.00% |           0      0.00%    100.00% (Unspecified)
system.caches.L1Cache_Controller.M.Fwd_GETS::total          197                       (Unspecified)
system.caches.L1Cache_Controller.IS.Inv  |           0      0.00%      0.00% |           0      0.00%      0.00% |           2     20.00%     20.00% |           2     20.00%     40.00% |           2     20.00%     60.00% |           2     20.00%     80.00% |           0      0.00%     80.00% |           2     20.00%    100.00% (Unspecified)
system.caches.L1Cache_Controller.IS.Inv::total           10                       (Unspecified)
system.caches.L1Cache_Controller.IS.Data_Exclusive |      379486     12.50%     12.50% |      379391     12.50%     25.00% |      379554     12.50%     37.50% |      379404     12.50%     50.00% |      379490     12.50%     62.50% |      379604     12.50%     75.01% |      379273     12.49%     87.50% |      379420     12.50%    100.00% (Unspecified)
system.caches.L1Cache_Controller.IS.Data_Exclusive::total      3035622                       (Unspecified)
system.caches.L1Cache_Controller.IS.DataS_fromL1 |          48      6.06%      6.06% |          62      7.83%     13.89% |           5      0.63%     14.52% |          21      2.65%     17.17% |          27      3.41%     20.58% |         284     35.86%     56.44% |         105     13.26%     69.70% |         240     30.30%    100.00% (Unspecified)
system.caches.L1Cache_Controller.IS.DataS_fromL1::total          792                       (Unspecified)
system.caches.L1Cache_Controller.IS.Data_all_Acks |        3588     15.10%     15.10% |        2759     11.61%     26.72% |        2963     12.47%     39.19% |        3006     12.65%     51.85% |        3017     12.70%     64.55% |        2758     11.61%     76.16% |        2926     12.32%     88.47% |        2738     11.53%    100.00% (Unspecified)
system.caches.L1Cache_Controller.IS.Data_all_Acks::total        23755                       (Unspecified)
system.caches.L1Cache_Controller.IM.Data |           3    100.00%    100.00% |           0      0.00%    100.00% |           0      0.00%    100.00% |           0      0.00%    100.00% |           0      0.00%    100.00% |           0      0.00%    100.00% |           0      0.00%    100.00% |           0      0.00%    100.00% (Unspecified)
system.caches.L1Cache_Controller.IM.Data::total            3                       (Unspecified)
system.caches.L1Cache_Controller.IM.Data_all_Acks |        1170     13.92%     13.92% |        1045     12.43%     26.35% |        1035     12.31%     38.66% |        1026     12.21%     50.87% |        1026     12.21%     63.07% |        1028     12.23%     75.30% |        1048     12.47%     87.77% |        1028     12.23%    100.00% (Unspecified)
system.caches.L1Cache_Controller.IM.Data_all_Acks::total         8406                       (Unspecified)
system.caches.L1Cache_Controller.SM.Ack  |        1361    100.00%    100.00% |           0      0.00%    100.00% |           0      0.00%    100.00% |           0      0.00%    100.00% |           0      0.00%    100.00% |           0      0.00%    100.00% |           0      0.00%    100.00% |           0      0.00%    100.00% (Unspecified)
system.caches.L1Cache_Controller.SM.Ack::total         1361                       (Unspecified)
system.caches.L1Cache_Controller.SM.Ack_all |         197    100.00%    100.00% |           0      0.00%    100.00% |           0      0.00%    100.00% |           0      0.00%    100.00% |           0      0.00%    100.00% |           0      0.00%    100.00% |           0      0.00%    100.00% |           0      0.00%    100.00% (Unspecified)
system.caches.L1Cache_Controller.SM.Ack_all::total          197                       (Unspecified)
system.caches.L1Cache_Controller.IS_I.Data_all_Acks |           0      0.00%      0.00% |           0      0.00%      0.00% |           2     20.00%     20.00% |           2     20.00%     40.00% |           2     20.00%     60.00% |           2     20.00%     80.00% |           0      0.00%     80.00% |           2     20.00%    100.00% (Unspecified)
system.caches.L1Cache_Controller.IS_I.Data_all_Acks::total           10                       (Unspecified)
system.caches.L1Cache_Controller.M_I.WB_Ack |      378593     12.81%     12.81% |      367401     12.43%     25.24% |      363249     12.29%     37.53% |      369447     12.50%     50.03% |      368395     12.46%     62.49% |      369952     12.52%     75.01% |      368854     12.48%     87.49% |      369803     12.51%    100.00% (Unspecified)
system.caches.L1Cache_Controller.M_I.WB_Ack::total      2955694                       (Unspecified)
system.caches.Directory_Controller.Fetch |        2795      0.09%      0.09% |     3042167     99.91%    100.00% (Unspecified)
system.caches.Directory_Controller.Fetch::total      3044962                       (Unspecified)
system.caches.Directory_Controller.Data  |         174      0.23%      0.23% |       76300     99.77%    100.00% (Unspecified)
system.caches.Directory_Controller.Data::total        76474                       (Unspecified)
system.caches.Directory_Controller.Memory_Data |        2795      0.09%      0.09% |     3042162     99.91%    100.00% (Unspecified)
system.caches.Directory_Controller.Memory_Data::total      3044957                       (Unspecified)
system.caches.Directory_Controller.Memory_Ack |         174      0.23%      0.23% |       76300     99.77%    100.00% (Unspecified)
system.caches.Directory_Controller.Memory_Ack::total        76474                       (Unspecified)
system.caches.Directory_Controller.CleanReplacement |        2583      0.09%      0.09% |     2834833     99.91%    100.00% (Unspecified)
system.caches.Directory_Controller.CleanReplacement::total      2837416                       (Unspecified)
system.caches.Directory_Controller.I.Fetch |        2795      0.09%      0.09% |     3042167     99.91%    100.00% (Unspecified)
system.caches.Directory_Controller.I.Fetch::total      3044962                       (Unspecified)
system.caches.Directory_Controller.M.Data |         174      0.23%      0.23% |       76300     99.77%    100.00% (Unspecified)
system.caches.Directory_Controller.M.Data::total        76474                       (Unspecified)
system.caches.Directory_Controller.M.CleanReplacement |        2583      0.09%      0.09% |     2834833     99.91%    100.00% (Unspecified)
system.caches.Directory_Controller.M.CleanReplacement::total      2837416                       (Unspecified)
system.caches.Directory_Controller.IM.Memory_Data |        2795      0.09%      0.09% |     3042162     99.91%    100.00% (Unspecified)
system.caches.Directory_Controller.IM.Memory_Data::total      3044957                       (Unspecified)
system.caches.Directory_Controller.MI.Memory_Ack |         174      0.23%      0.23% |       76300     99.77%    100.00% (Unspecified)
system.caches.Directory_Controller.MI.Memory_Ack::total        76474                       (Unspecified)
system.caches.L2Cache_Controller.L1_GET_INSTR |        2007     11.35%     11.35% |        3088     17.46%     28.81% |        2028     11.47%     40.27% |        1515      8.57%     48.84% |        2076     11.74%     60.58% |        2067     11.69%     72.27% |        1957     11.07%     83.33% |        2948     16.67%    100.00% (Unspecified)
system.caches.L2Cache_Controller.L1_GET_INSTR::total        17686                       (Unspecified)
system.caches.L2Cache_Controller.L1_GETS |      381574     12.54%     12.54% |      380687     12.51%     25.05% |      380221     12.50%     37.55% |      380048     12.49%     50.04% |      379934     12.49%     62.53% |      379864     12.48%     75.01% |      380094     12.49%     87.51% |      380154     12.49%    100.00% (Unspecified)
system.caches.L2Cache_Controller.L1_GETS::total      3042576                       (Unspecified)
system.caches.L2Cache_Controller.L1_GETX |        1251     14.54%     14.54% |        1099     12.77%     27.31% |         924     10.74%     38.04% |         991     11.52%     49.56% |         939     10.91%     60.47% |        1204     13.99%     74.46% |        1062     12.34%     86.80% |        1136     13.20%    100.00% (Unspecified)
system.caches.L2Cache_Controller.L1_GETX::total         8606                       (Unspecified)
system.caches.L2Cache_Controller.L1_UPGRADE |          94     47.96%     47.96% |          48     24.49%     72.45% |           0      0.00%     72.45% |           0      0.00%     72.45% |           0      0.00%     72.45% |           0      0.00%     72.45% |          54     27.55%    100.00% |           0      0.00%    100.00% (Unspecified)
system.caches.L2Cache_Controller.L1_UPGRADE::total          196                       (Unspecified)
system.caches.L2Cache_Controller.L1_PUTX |      369537     12.50%     12.50% |      369538     12.50%     25.01% |      369351     12.50%     37.50% |      369498     12.50%     50.00% |      369487     12.50%     62.50% |      369424     12.50%     75.00% |      369471     12.50%     87.50% |      369388     12.50%    100.00% (Unspecified)
system.caches.L2Cache_Controller.L1_PUTX::total      2955694                       (Unspecified)
system.caches.L2Cache_Controller.L2_Replacement |        8527     12.66%     12.66% |        8425     12.51%     25.17% |        8418     12.50%     37.68% |        8394     12.47%     50.14% |        8381     12.45%     62.59% |        8385     12.45%     75.04% |        8374     12.44%     87.48% |        8434     12.52%    100.00% (Unspecified)
system.caches.L2Cache_Controller.L2_Replacement::total        67338                       (Unspecified)
system.caches.L2Cache_Controller.L2_Replacement_clean |      355992     12.51%     12.51% |      355888     12.50%     25.01% |      355547     12.49%     37.50% |      355718     12.50%     50.00% |      355703     12.50%     62.49% |      356009     12.51%     75.00% |      355784     12.50%     87.50% |      355911     12.50%    100.00% (Unspecified)
system.caches.L2Cache_Controller.L2_Replacement_clean::total      2846552                       (Unspecified)
system.caches.L2Cache_Controller.Mem_Data |      380901     12.51%     12.51% |      380697     12.50%     25.01% |      380349     12.49%     37.50% |      380496     12.50%     50.00% |      380468     12.50%     62.49% |      380776     12.51%     75.00% |      380541     12.50%     87.50% |      380729     12.50%    100.00% (Unspecified)
system.caches.L2Cache_Controller.Mem_Data::total      3044957                       (Unspecified)
system.caches.L2Cache_Controller.Mem_Ack |      364519     12.51%     12.51% |      364313     12.50%     25.01% |      363965     12.49%     37.50% |      364112     12.50%     50.00% |      364084     12.49%     62.49% |      364394     12.51%     75.00% |      364158     12.50%     87.50% |      364345     12.50%    100.00% (Unspecified)
system.caches.L2Cache_Controller.Mem_Ack::total      2913890                       (Unspecified)
system.caches.L2Cache_Controller.WB_Data |        1364     14.17%     14.17% |        1154     11.99%     26.17% |         955      9.92%     36.09% |        1173     12.19%     48.28% |         968     10.06%     58.34% |        1424     14.80%     73.14% |        1216     12.64%     85.77% |        1369     14.23%    100.00% (Unspecified)
system.caches.L2Cache_Controller.WB_Data::total         9623                       (Unspecified)
system.caches.L2Cache_Controller.WB_Data_clean |         151     25.38%     25.38% |          80     13.45%     38.82% |         106     17.82%     56.64% |          60     10.08%     66.72% |          52      8.74%     75.46% |          41      6.89%     82.35% |          36      6.05%     88.40% |          69     11.60%    100.00% (Unspecified)
system.caches.L2Cache_Controller.WB_Data_clean::total          595                       (Unspecified)
system.caches.L2Cache_Controller.Ack     |        2724     16.34%     16.34% |        2102     12.61%     28.95% |        2334     14.00%     42.95% |        1660      9.96%     52.91% |        2066     12.39%     65.30% |        1994     11.96%     77.26% |        1828     10.97%     88.23% |        1963     11.77%    100.00% (Unspecified)
system.caches.L2Cache_Controller.Ack::total        16671                       (Unspecified)
system.caches.L2Cache_Controller.Ack_all |        3176     13.20%     13.20% |        3202     13.31%     26.51% |        2992     12.44%     38.95% |        2871     11.93%     50.88% |        3039     12.63%     63.51% |        2882     11.98%     75.49% |        2949     12.26%     87.75% |        2948     12.25%    100.00% (Unspecified)
system.caches.L2Cache_Controller.Ack_all::total        24059                       (Unspecified)
system.caches.L2Cache_Controller.Unblock |         247     31.19%     31.19% |         128     16.16%     47.35% |         106     13.38%     60.73% |          60      7.58%     68.31% |          52      6.57%     74.87% |          41      5.18%     80.05% |          89     11.24%     91.29% |          69      8.71%    100.00% (Unspecified)
system.caches.L2Cache_Controller.Unblock::total          792                       (Unspecified)
system.caches.L2Cache_Controller.Exclusive_Unblock |      380874     12.51%     12.51% |      380743     12.51%     25.02% |      380157     12.49%     37.51% |      380465     12.50%     50.00% |      380339     12.49%     62.50% |      380589     12.50%     75.00% |      380502     12.50%     87.50% |      380556     12.50%    100.00% (Unspecified)
system.caches.L2Cache_Controller.Exclusive_Unblock::total      3044225                       (Unspecified)
system.caches.L2Cache_Controller.NP.L1_GET_INSTR |         298     13.17%     13.17% |         282     12.47%     25.64% |         287     12.69%     38.33% |         231     10.21%     48.54% |         300     13.26%     61.80% |         294     13.00%     74.80% |         277     12.25%     87.05% |         293     12.95%    100.00% (Unspecified)
system.caches.L2Cache_Controller.NP.L1_GET_INSTR::total         2262                       (Unspecified)
system.caches.L2Cache_Controller.NP.L1_GETS |      379499     12.51%     12.51% |      379389     12.50%     25.01% |      379172     12.49%     37.50% |      379330     12.50%     50.00% |      379284     12.50%     62.50% |      379340     12.50%     75.00% |      379250     12.50%     87.50% |      379374     12.50%    100.00% (Unspecified)
system.caches.L2Cache_Controller.NP.L1_GETS::total      3034638                       (Unspecified)
system.caches.L2Cache_Controller.NP.L1_GETX |        1106     13.72%     13.72% |        1026     12.73%     26.45% |         890     11.04%     37.48% |         935     11.60%     49.08% |         884     10.97%     60.05% |        1144     14.19%     74.24% |        1015     12.59%     86.83% |        1062     13.17%    100.00% (Unspecified)
system.caches.L2Cache_Controller.NP.L1_GETX::total         8062                       (Unspecified)
system.caches.L2Cache_Controller.SS.L1_GET_INSTR |        1685     11.05%     11.05% |        2791     18.30%     29.35% |        1717     11.26%     40.61% |        1260      8.26%     48.88% |        1758     11.53%     60.40% |        1759     11.54%     71.94% |        1656     10.86%     82.80% |        2623     17.20%    100.00% (Unspecified)
system.caches.L2Cache_Controller.SS.L1_GET_INSTR::total        15249                       (Unspecified)
system.caches.L2Cache_Controller.SS.L1_GETS |        1735     28.88%     28.88% |         933     15.53%     44.41% |         855     14.23%     58.65% |         476      7.92%     66.57% |         442      7.36%     73.93% |         404      6.73%     80.66% |         541      9.01%     89.66% |         621     10.34%    100.00% (Unspecified)
system.caches.L2Cache_Controller.SS.L1_GETS::total         6007                       (Unspecified)
system.caches.L2Cache_Controller.SS.L1_GETX |           2     66.67%     66.67% |           0      0.00%     66.67% |           0      0.00%     66.67% |           0      0.00%     66.67% |           0      0.00%     66.67% |           0      0.00%     66.67% |           1     33.33%    100.00% |           0      0.00%    100.00% (Unspecified)
system.caches.L2Cache_Controller.SS.L1_GETX::total            3                       (Unspecified)
system.caches.L2Cache_Controller.SS.L1_UPGRADE |          94     48.45%     48.45% |          48     24.74%     73.20% |           0      0.00%     73.20% |           0      0.00%     73.20% |           0      0.00%     73.20% |           0      0.00%     73.20% |          52     26.80%    100.00% |           0      0.00%    100.00% (Unspecified)
system.caches.L2Cache_Controller.SS.L1_UPGRADE::total          194                       (Unspecified)
system.caches.L2Cache_Controller.SS.L2_Replacement_clean |         452     15.94%     15.94% |         361     12.73%     28.67% |         390     13.75%     42.42% |         287     10.12%     52.54% |         347     12.24%     64.77% |         327     11.53%     76.30% |         310     10.93%     87.24% |         362     12.76%    100.00% (Unspecified)
system.caches.L2Cache_Controller.SS.L2_Replacement_clean::total         2836                       (Unspecified)
system.caches.L2Cache_Controller.M.L1_GET_INSTR |           0      0.00%      0.00% |           2     25.00%     25.00% |           1     12.50%     37.50% |           0      0.00%     37.50% |           0      0.00%     37.50% |           1     12.50%     50.00% |           2     25.00%     75.00% |           2     25.00%    100.00% (Unspecified)
system.caches.L2Cache_Controller.M.L1_GET_INSTR::total            8                       (Unspecified)
system.caches.L2Cache_Controller.M.L1_GETS |          62      6.16%      6.16% |         229     22.74%     28.90% |          84      8.34%     37.24% |         172     17.08%     54.32% |         154     15.29%     69.61% |          78      7.75%     77.36% |         156     15.49%     92.85% |          72      7.15%    100.00% (Unspecified)
system.caches.L2Cache_Controller.M.L1_GETS::total         1007                       (Unspecified)
system.caches.L2Cache_Controller.M.L1_GETX |         119     34.59%     34.59% |          52     15.12%     49.71% |          13      3.78%     53.49% |          31      9.01%     62.50% |          19      5.52%     68.02% |          29      8.43%     76.45% |          29      8.43%     84.88% |          52     15.12%    100.00% (Unspecified)
system.caches.L2Cache_Controller.M.L1_GETX::total          344                       (Unspecified)
system.caches.L2Cache_Controller.M.L2_Replacement |        8417     12.56%     12.56% |        8375     12.49%     25.05% |        8406     12.54%     37.59% |        8373     12.49%     50.08% |        8367     12.48%     62.56% |        8362     12.47%     75.03% |        8358     12.47%     87.50% |        8383     12.50%    100.00% (Unspecified)
system.caches.L2Cache_Controller.M.L2_Replacement::total        67041                       (Unspecified)
system.caches.L2Cache_Controller.M.L2_Replacement_clean |      351658     12.50%     12.50% |      351630     12.50%     25.00% |      351612     12.50%     37.50% |      351695     12.50%     50.00% |      351710     12.50%     62.50% |      351726     12.50%     75.00% |      351688     12.50%     87.50% |      351645     12.50%    100.00% (Unspecified)
system.caches.L2Cache_Controller.M.L2_Replacement_clean::total      2813364                       (Unspecified)
system.caches.L2Cache_Controller.MT.L1_GETS |         247     31.19%     31.19% |         128     16.16%     47.35% |         106     13.38%     60.73% |          60      7.58%     68.31% |          52      6.57%     74.87% |          41      5.18%     80.05% |          89     11.24%     91.29% |          69      8.71%    100.00% (Unspecified)
system.caches.L2Cache_Controller.MT.L1_GETS::total          792                       (Unspecified)
system.caches.L2Cache_Controller.MT.L1_PUTX |      369537     12.50%     12.50% |      369538     12.50%     25.01% |      369351     12.50%     37.50% |      369498     12.50%     50.00% |      369487     12.50%     62.50% |      369424     12.50%     75.00% |      369471     12.50%     87.50% |      369388     12.50%    100.00% (Unspecified)
system.caches.L2Cache_Controller.MT.L1_PUTX::total      2955694                       (Unspecified)
system.caches.L2Cache_Controller.MT.L2_Replacement |         110     37.04%     37.04% |          50     16.84%     53.87% |          12      4.04%     57.91% |          21      7.07%     64.98% |          14      4.71%     69.70% |          23      7.74%     77.44% |          16      5.39%     82.83% |          51     17.17%    100.00% (Unspecified)
system.caches.L2Cache_Controller.MT.L2_Replacement::total          297                       (Unspecified)
system.caches.L2Cache_Controller.MT.L2_Replacement_clean |        3882     12.79%     12.79% |        3897     12.84%     25.63% |        3545     11.68%     37.31% |        3736     12.31%     49.62% |        3646     12.01%     61.63% |        3956     13.03%     74.66% |        3786     12.47%     87.14% |        3904     12.86%    100.00% (Unspecified)
system.caches.L2Cache_Controller.MT.L2_Replacement_clean::total        30352                       (Unspecified)
system.caches.L2Cache_Controller.M_I.L1_GET_INSTR |           0      0.00%      0.00% |           0      0.00%      0.00% |           3    100.00%    100.00% |           0      0.00%    100.00% |           0      0.00%    100.00% |           0      0.00%    100.00% |           0      0.00%    100.00% |           0      0.00%    100.00% (Unspecified)
system.caches.L2Cache_Controller.M_I.L1_GET_INSTR::total            3                       (Unspecified)
system.caches.L2Cache_Controller.M_I.L1_GETS |           0      0.00%      0.00% |           0      0.00%      0.00% |           0      0.00%      0.00% |           1    100.00%    100.00% |           0      0.00%    100.00% |           0      0.00%    100.00% |           0      0.00%    100.00% |           0      0.00%    100.00% (Unspecified)
system.caches.L2Cache_Controller.M_I.L1_GETS::total            1                       (Unspecified)
system.caches.L2Cache_Controller.M_I.L1_GETX |          24     12.18%     12.18% |          21     10.66%     22.84% |          21     10.66%     33.50% |          25     12.69%     46.19% |          36     18.27%     64.47% |          31     15.74%     80.20% |          17      8.63%     88.83% |          22     11.17%    100.00% (Unspecified)
system.caches.L2Cache_Controller.M_I.L1_GETX::total          197                       (Unspecified)
system.caches.L2Cache_Controller.M_I.Mem_Ack |      364519     12.51%     12.51% |      364313     12.50%     25.01% |      363965     12.49%     37.50% |      364112     12.50%     50.00% |      364084     12.49%     62.49% |      364394     12.51%     75.00% |      364158     12.50%     87.50% |      364345     12.50%    100.00% (Unspecified)
system.caches.L2Cache_Controller.M_I.Mem_Ack::total      2913890                       (Unspecified)
system.caches.L2Cache_Controller.MT_I.WB_Data |         107     36.90%     36.90% |          48     16.55%     53.45% |          12      4.14%     57.59% |          20      6.90%     64.48% |          13      4.48%     68.97% |          23      7.93%     76.90% |          16      5.52%     82.41% |          51     17.59%    100.00% (Unspecified)
system.caches.L2Cache_Controller.MT_I.WB_Data::total          290                       (Unspecified)
system.caches.L2Cache_Controller.MT_I.Ack_all |           3     42.86%     42.86% |           2     28.57%     71.43% |           0      0.00%     71.43% |           1     14.29%     85.71% |           1     14.29%    100.00% |           0      0.00%    100.00% |           0      0.00%    100.00% |           0      0.00%    100.00% (Unspecified)
system.caches.L2Cache_Controller.MT_I.Ack_all::total            7                       (Unspecified)
system.caches.L2Cache_Controller.MCT_I.WB_Data |        1161     12.71%     12.71% |        1058     11.58%     24.29% |         943     10.32%     34.61% |        1153     12.62%     47.23% |         955     10.45%     57.68% |        1401     15.33%     73.02% |        1147     12.55%     85.57% |        1318     14.43%    100.00% (Unspecified)
system.caches.L2Cache_Controller.MCT_I.WB_Data::total         9136                       (Unspecified)
system.caches.L2Cache_Controller.MCT_I.Ack_all |        2721     12.83%     12.83% |        2839     13.38%     26.21% |        2602     12.26%     38.47% |        2583     12.17%     50.65% |        2691     12.68%     63.33% |        2555     12.04%     75.37% |        2639     12.44%     87.81% |        2586     12.19%    100.00% (Unspecified)
system.caches.L2Cache_Controller.MCT_I.Ack_all::total        21216                       (Unspecified)
system.caches.L2Cache_Controller.I_I.Ack |        2724     16.34%     16.34% |        2102     12.61%     28.95% |        2334     14.00%     42.95% |        1660      9.96%     52.91% |        2066     12.39%     65.30% |        1994     11.96%     77.26% |        1828     10.97%     88.23% |        1963     11.77%    100.00% (Unspecified)
system.caches.L2Cache_Controller.I_I.Ack::total        16671                       (Unspecified)
system.caches.L2Cache_Controller.I_I.Ack_all |         452     15.94%     15.94% |         361     12.73%     28.67% |         390     13.75%     42.42% |         287     10.12%     52.54% |         347     12.24%     64.77% |         327     11.53%     76.30% |         310     10.93%     87.24% |         362     12.76%    100.00% (Unspecified)
system.caches.L2Cache_Controller.I_I.Ack_all::total         2836                       (Unspecified)
system.caches.L2Cache_Controller.ISS.L1_GETS |           6     33.33%     33.33% |           1      5.56%     38.89% |           2     11.11%     50.00% |           3     16.67%     66.67% |           2     11.11%     77.78% |           0      0.00%     77.78% |           0      0.00%     77.78% |           4     22.22%    100.00% (Unspecified)
system.caches.L2Cache_Controller.ISS.L1_GETS::total           18                       (Unspecified)
system.caches.L2Cache_Controller.ISS.Mem_Data |      379491     12.51%     12.51% |      379388     12.50%     25.01% |      379170     12.49%     37.50% |      379327     12.50%     50.00% |      379282     12.50%     62.50% |      379338     12.50%     75.00% |      379249     12.50%     87.50% |      379370     12.50%    100.00% (Unspecified)
system.caches.L2Cache_Controller.ISS.Mem_Data::total      3034615                       (Unspecified)
system.caches.L2Cache_Controller.IS.L1_GET_INSTR |          24     14.63%     14.63% |          13      7.93%     22.56% |          20     12.20%     34.76% |          24     14.63%     49.39% |          18     10.98%     60.37% |          13      7.93%     68.29% |          22     13.41%     81.71% |          30     18.29%    100.00% (Unspecified)
system.caches.L2Cache_Controller.IS.L1_GET_INSTR::total          164                       (Unspecified)
system.caches.L2Cache_Controller.IS.L1_GETS |          25     64.10%     64.10% |           5     12.82%     76.92% |           1      2.56%     79.49% |           0      0.00%     79.49% |           0      0.00%     79.49% |           0      0.00%     79.49% |           0      0.00%     79.49% |           8     20.51%    100.00% (Unspecified)
system.caches.L2Cache_Controller.IS.L1_GETS::total           39                       (Unspecified)
system.caches.L2Cache_Controller.IS.Mem_Data |         304     13.33%     13.33% |         283     12.41%     25.75% |         289     12.68%     38.42% |         234     10.26%     48.68% |         302     13.25%     61.93% |         294     12.89%     74.82% |         277     12.15%     86.97% |         297     13.03%    100.00% (Unspecified)
system.caches.L2Cache_Controller.IS.Mem_Data::total         2280                       (Unspecified)
system.caches.L2Cache_Controller.IM.Mem_Data |        1106     13.72%     13.72% |        1026     12.73%     26.45% |         890     11.04%     37.48% |         935     11.60%     49.08% |         884     10.97%     60.05% |        1144     14.19%     74.24% |        1015     12.59%     86.83% |        1062     13.17%    100.00% (Unspecified)
system.caches.L2Cache_Controller.IM.Mem_Data::total         8062                       (Unspecified)
system.caches.L2Cache_Controller.SS_MB.L1_GETS |           0      0.00%      0.00% |           0      0.00%      0.00% |           0      0.00%      0.00% |           0      0.00%      0.00% |           0      0.00%      0.00% |           0      0.00%      0.00% |          31    100.00%    100.00% |           0      0.00%    100.00% (Unspecified)
system.caches.L2Cache_Controller.SS_MB.L1_GETS::total           31                       (Unspecified)
system.caches.L2Cache_Controller.SS_MB.Exclusive_Unblock |          96     48.73%     48.73% |          48     24.37%     73.10% |           0      0.00%     73.10% |           0      0.00%     73.10% |           0      0.00%     73.10% |           0      0.00%     73.10% |          53     26.90%    100.00% |           0      0.00%    100.00% (Unspecified)
system.caches.L2Cache_Controller.SS_MB.Exclusive_Unblock::total          197                       (Unspecified)
system.caches.L2Cache_Controller.MT_MB.L1_GETS |           0      0.00%      0.00% |           1     50.00%     50.00% |           1     50.00%    100.00% |           0      0.00%    100.00% |           0      0.00%    100.00% |           0      0.00%    100.00% |           0      0.00%    100.00% |           0      0.00%    100.00% (Unspecified)
system.caches.L2Cache_Controller.MT_MB.L1_GETS::total            2                       (Unspecified)
system.caches.L2Cache_Controller.MT_MB.Exclusive_Unblock |      380778     12.51%     12.51% |      380695     12.51%     25.02% |      380157     12.49%     37.50% |      380465     12.50%     50.00% |      380339     12.49%     62.50% |      380589     12.50%     75.00% |      380449     12.50%     87.50% |      380556     12.50%    100.00% (Unspecified)
system.caches.L2Cache_Controller.MT_MB.Exclusive_Unblock::total      3044028                       (Unspecified)
system.caches.L2Cache_Controller.MT_IIB.L1_GETS |           0      0.00%      0.00% |           0      0.00%      0.00% |           0      0.00%      0.00% |           6     15.38%     15.38% |           0      0.00%     15.38% |           1      2.56%     17.95% |          27     69.23%     87.18% |           5     12.82%    100.00% (Unspecified)
system.caches.L2Cache_Controller.MT_IIB.L1_GETS::total           39                       (Unspecified)
system.caches.L2Cache_Controller.MT_IIB.WB_Data |          96     48.73%     48.73% |          48     24.37%     73.10% |           0      0.00%     73.10% |           0      0.00%     73.10% |           0      0.00%     73.10% |           0      0.00%     73.10% |          53     26.90%    100.00% |           0      0.00%    100.00% (Unspecified)
system.caches.L2Cache_Controller.MT_IIB.WB_Data::total          197                       (Unspecified)
system.caches.L2Cache_Controller.MT_IIB.WB_Data_clean |         151     25.38%     25.38% |          80     13.45%     38.82% |         106     17.82%     56.64% |          60     10.08%     66.72% |          52      8.74%     75.46% |          41      6.89%     82.35% |          36      6.05%     88.40% |          69     11.60%    100.00% (Unspecified)
system.caches.L2Cache_Controller.MT_IIB.WB_Data_clean::total          595                       (Unspecified)
system.caches.L2Cache_Controller.MT_SB.L1_GETS |           0      0.00%      0.00% |           1     50.00%     50.00% |           0      0.00%     50.00% |           0      0.00%     50.00% |           0      0.00%     50.00% |           0      0.00%     50.00% |           0      0.00%     50.00% |           1     50.00%    100.00% (Unspecified)
system.caches.L2Cache_Controller.MT_SB.L1_GETS::total            2                       (Unspecified)
system.caches.L2Cache_Controller.MT_SB.L1_UPGRADE |           0      0.00%      0.00% |           0      0.00%      0.00% |           0      0.00%      0.00% |           0      0.00%      0.00% |           0      0.00%      0.00% |           0      0.00%      0.00% |           2    100.00%    100.00% |           0      0.00%    100.00% (Unspecified)
system.caches.L2Cache_Controller.MT_SB.L1_UPGRADE::total            2                       (Unspecified)
system.caches.L2Cache_Controller.MT_SB.Unblock |         247     31.19%     31.19% |         128     16.16%     47.35% |         106     13.38%     60.73% |          60      7.58%     68.31% |          52      6.57%     74.87% |          41      5.18%     80.05% |          89     11.24%     91.29% |          69      8.71%    100.00% (Unspecified)
system.caches.L2Cache_Controller.MT_SB.Unblock::total          792                       (Unspecified)
system.caches.RequestType.LD.latency_hist_seqr::bucket_size          512                       (Unspecified)
system.caches.RequestType.LD.latency_hist_seqr::max_bucket         5119                       (Unspecified)
system.caches.RequestType.LD.latency_hist_seqr::samples     48770080                       (Unspecified)
system.caches.RequestType.LD.latency_hist_seqr::mean    34.210459                       (Unspecified)
system.caches.RequestType.LD.latency_hist_seqr::gmean     1.474296                       (Unspecified)
system.caches.RequestType.LD.latency_hist_seqr::stdev   140.803586                       (Unspecified)
system.caches.RequestType.LD.latency_hist_seqr |    48125072     98.68%     98.68% |      534041      1.10%     99.77% |       33604      0.07%     99.84% |       75713      0.16%    100.00% |        1309      0.00%    100.00% |         323      0.00%    100.00% |          18      0.00%    100.00% |           0      0.00%    100.00% |           0      0.00%    100.00% |           0      0.00%    100.00% (Unspecified)
system.caches.RequestType.LD.latency_hist_seqr::total     48770080                       (Unspecified)
system.caches.RequestType.LD.hit_latency_hist_seqr::bucket_size            1                       (Unspecified)
system.caches.RequestType.LD.hit_latency_hist_seqr::max_bucket            9                       (Unspecified)
system.caches.RequestType.LD.hit_latency_hist_seqr::samples     45727584                       (Unspecified)
system.caches.RequestType.LD.hit_latency_hist_seqr::mean     1.000009                       (Unspecified)
system.caches.RequestType.LD.hit_latency_hist_seqr::gmean     1.000006                       (Unspecified)
system.caches.RequestType.LD.hit_latency_hist_seqr::stdev     0.002950                       (Unspecified)
system.caches.RequestType.LD.hit_latency_hist_seqr |           0      0.00%      0.00% |    45727186    100.00%    100.00% |         398      0.00%    100.00% |           0      0.00%    100.00% |           0      0.00%    100.00% |           0      0.00%    100.00% |           0      0.00%    100.00% |           0      0.00%    100.00% |           0      0.00%    100.00% |           0      0.00%    100.00% (Unspecified)
system.caches.RequestType.LD.hit_latency_hist_seqr::total     45727584                       (Unspecified)
system.caches.RequestType.LD.miss_latency_hist_seqr::bucket_size          512                       (Unspecified)
system.caches.RequestType.LD.miss_latency_hist_seqr::max_bucket         5119                       (Unspecified)
system.caches.RequestType.LD.miss_latency_hist_seqr::samples      3042496                       (Unspecified)
system.caches.RequestType.LD.miss_latency_hist_seqr::mean   533.351181                       (Unspecified)
system.caches.RequestType.LD.miss_latency_hist_seqr::gmean   503.860796                       (Unspecified)
system.caches.RequestType.LD.miss_latency_hist_seqr::stdev   228.209688                       (Unspecified)
system.caches.RequestType.LD.miss_latency_hist_seqr |     2397488     78.80%     78.80% |      534041     17.55%     96.35% |       33604      1.10%     97.46% |       75713      2.49%     99.95% |        1309      0.04%     99.99% |         323      0.01%    100.00% |          18      0.00%    100.00% |           0      0.00%    100.00% |           0      0.00%    100.00% |           0      0.00%    100.00% (Unspecified)
system.caches.RequestType.LD.miss_latency_hist_seqr::total      3042496                       (Unspecified)
system.caches.RequestType.ST.latency_hist_seqr::bucket_size          256                       (Unspecified)
system.caches.RequestType.ST.latency_hist_seqr::max_bucket         2559                       (Unspecified)
system.caches.RequestType.ST.latency_hist_seqr::samples     48616444                       (Unspecified)
system.caches.RequestType.ST.latency_hist_seqr::mean     1.009870                       (Unspecified)
system.caches.RequestType.ST.latency_hist_seqr::gmean     1.000190                       (Unspecified)
system.caches.RequestType.ST.latency_hist_seqr::stdev     2.479770                       (Unspecified)
system.caches.RequestType.ST.latency_hist_seqr |    48615659    100.00%    100.00% |         369      0.00%    100.00% |         327      0.00%    100.00% |          59      0.00%    100.00% |           3      0.00%    100.00% |          13      0.00%    100.00% |          11      0.00%    100.00% |           2      0.00%    100.00% |           1      0.00%    100.00% |           0      0.00%    100.00% (Unspecified)
system.caches.RequestType.ST.latency_hist_seqr::total     48616444                       (Unspecified)
system.caches.RequestType.ST.hit_latency_hist_seqr::bucket_size          256                       (Unspecified)
system.caches.RequestType.ST.hit_latency_hist_seqr::max_bucket         2559                       (Unspecified)
system.caches.RequestType.ST.hit_latency_hist_seqr::samples     48615079                       (Unspecified)
system.caches.RequestType.ST.hit_latency_hist_seqr::mean     1.000860                       (Unspecified)
system.caches.RequestType.ST.hit_latency_hist_seqr::gmean     1.000049                       (Unspecified)
system.caches.RequestType.ST.hit_latency_hist_seqr::stdev     0.721580                       (Unspecified)
system.caches.RequestType.ST.hit_latency_hist_seqr |    48614999    100.00%    100.00% |          56      0.00%    100.00% |          18      0.00%    100.00% |           2      0.00%    100.00% |           0      0.00%    100.00% |           1      0.00%    100.00% |           2      0.00%    100.00% |           1      0.00%    100.00% |           0      0.00%    100.00% |           0      0.00%    100.00% (Unspecified)
system.caches.RequestType.ST.hit_latency_hist_seqr::total     48615079                       (Unspecified)
system.caches.RequestType.ST.miss_latency_hist_seqr::bucket_size          256                       (Unspecified)
system.caches.RequestType.ST.miss_latency_hist_seqr::max_bucket         2559                       (Unspecified)
system.caches.RequestType.ST.miss_latency_hist_seqr::samples         1365                       (Unspecified)
system.caches.RequestType.ST.miss_latency_hist_seqr::mean   321.887912                       (Unspecified)
system.caches.RequestType.ST.miss_latency_hist_seqr::gmean   150.751601                       (Unspecified)
system.caches.RequestType.ST.miss_latency_hist_seqr::stdev   312.372287                       (Unspecified)
system.caches.RequestType.ST.miss_latency_hist_seqr |         660     48.35%     48.35% |         313     22.93%     71.28% |         309     22.64%     93.92% |          57      4.18%     98.10% |           3      0.22%     98.32% |          12      0.88%     99.19% |           9      0.66%     99.85% |           1      0.07%     99.93% |           1      0.07%    100.00% |           0      0.00%    100.00% (Unspecified)
system.caches.RequestType.ST.miss_latency_hist_seqr::total         1365                       (Unspecified)
system.caches.RequestType.IFETCH.latency_hist_seqr::bucket_size          256                       (Unspecified)
system.caches.RequestType.IFETCH.latency_hist_seqr::max_bucket         2559                       (Unspecified)
system.caches.RequestType.IFETCH.latency_hist_seqr::samples       202149                       (Unspecified)
system.caches.RequestType.IFETCH.latency_hist_seqr::mean     5.027747                       (Unspecified)
system.caches.RequestType.IFETCH.latency_hist_seqr::gmean     1.297609                       (Unspecified)
system.caches.RequestType.IFETCH.latency_hist_seqr::stdev    31.094019                       (Unspecified)
system.caches.RequestType.IFETCH.latency_hist_seqr |      201336     99.60%     99.60% |         779      0.39%     99.98% |          16      0.01%     99.99% |           3      0.00%     99.99% |           0      0.00%     99.99% |           9      0.00%    100.00% |           6      0.00%    100.00% |           0      0.00%    100.00% |           0      0.00%    100.00% |           0      0.00%    100.00% (Unspecified)
system.caches.RequestType.IFETCH.latency_hist_seqr::total       202149                       (Unspecified)
system.caches.RequestType.IFETCH.hit_latency_hist_seqr::bucket_size            1                       (Unspecified)
system.caches.RequestType.IFETCH.hit_latency_hist_seqr::max_bucket            9                       (Unspecified)
system.caches.RequestType.IFETCH.hit_latency_hist_seqr::samples       184466                       (Unspecified)
system.caches.RequestType.IFETCH.hit_latency_hist_seqr::mean            1                       (Unspecified)
system.caches.RequestType.IFETCH.hit_latency_hist_seqr::gmean            1                       (Unspecified)
system.caches.RequestType.IFETCH.hit_latency_hist_seqr |           0      0.00%      0.00% |      184466    100.00%    100.00% |           0      0.00%    100.00% |           0      0.00%    100.00% |           0      0.00%    100.00% |           0      0.00%    100.00% |           0      0.00%    100.00% |           0      0.00%    100.00% |           0      0.00%    100.00% |           0      0.00%    100.00% (Unspecified)
system.caches.RequestType.IFETCH.hit_latency_hist_seqr::total       184466                       (Unspecified)
system.caches.RequestType.IFETCH.miss_latency_hist_seqr::bucket_size          256                       (Unspecified)
system.caches.RequestType.IFETCH.miss_latency_hist_seqr::max_bucket         2559                       (Unspecified)
system.caches.RequestType.IFETCH.miss_latency_hist_seqr::samples        17683                       (Unspecified)
system.caches.RequestType.IFETCH.miss_latency_hist_seqr::mean    47.044506                       (Unspecified)
system.caches.RequestType.IFETCH.miss_latency_hist_seqr::gmean    19.653621                       (Unspecified)
system.caches.RequestType.IFETCH.miss_latency_hist_seqr::stdev    95.491073                       (Unspecified)
system.caches.RequestType.IFETCH.miss_latency_hist_seqr |       16870     95.40%     95.40% |         779      4.41%     99.81% |          16      0.09%     99.90% |           3      0.02%     99.92% |           0      0.00%     99.92% |           9      0.05%     99.97% |           6      0.03%    100.00% |           0      0.00%    100.00% |           0      0.00%    100.00% |           0      0.00%    100.00% (Unspecified)
system.caches.RequestType.IFETCH.miss_latency_hist_seqr::total        17683                       (Unspecified)
system.caches.RequestType.RMW_Read.latency_hist_seqr::bucket_size          256                       (Unspecified)
system.caches.RequestType.RMW_Read.latency_hist_seqr::max_bucket         2559                       (Unspecified)
system.caches.RequestType.RMW_Read.latency_hist_seqr::samples     48411044                       (Unspecified)
system.caches.RequestType.RMW_Read.latency_hist_seqr::mean     1.032591                       (Unspecified)
system.caches.RequestType.RMW_Read.latency_hist_seqr::gmean     1.000765                       (Unspecified)
system.caches.RequestType.RMW_Read.latency_hist_seqr::stdev     4.065186                       (Unspecified)
system.caches.RequestType.RMW_Read.latency_hist_seqr |    48408863    100.00%    100.00% |        1048      0.00%    100.00% |         930      0.00%    100.00% |         125      0.00%    100.00% |          17      0.00%    100.00% |          23      0.00%    100.00% |          32      0.00%    100.00% |           4      0.00%    100.00% |           2      0.00%    100.00% |           0      0.00%    100.00% (Unspecified)
system.caches.RequestType.RMW_Read.latency_hist_seqr::total     48411044                       (Unspecified)
system.caches.RequestType.RMW_Read.hit_latency_hist_seqr::bucket_size          256                       (Unspecified)
system.caches.RequestType.RMW_Read.hit_latency_hist_seqr::max_bucket         2559                       (Unspecified)
system.caches.RequestType.RMW_Read.hit_latency_hist_seqr::samples     48404013                       (Unspecified)
system.caches.RequestType.RMW_Read.hit_latency_hist_seqr::mean     1.002447                       (Unspecified)
system.caches.RequestType.RMW_Read.hit_latency_hist_seqr::gmean     1.000063                       (Unspecified)
system.caches.RequestType.RMW_Read.hit_latency_hist_seqr::stdev     1.155534                       (Unspecified)
system.caches.RequestType.RMW_Read.hit_latency_hist_seqr |    48403794    100.00%    100.00% |         136      0.00%    100.00% |          69      0.00%    100.00% |          10      0.00%    100.00% |           1      0.00%    100.00% |           2      0.00%    100.00% |           1      0.00%    100.00% |           0      0.00%    100.00% |           0      0.00%    100.00% |           0      0.00%    100.00% (Unspecified)
system.caches.RequestType.RMW_Read.hit_latency_hist_seqr::total     48404013                       (Unspecified)
system.caches.RequestType.RMW_Read.miss_latency_hist_seqr::bucket_size          256                       (Unspecified)
system.caches.RequestType.RMW_Read.miss_latency_hist_seqr::max_bucket         2559                       (Unspecified)
system.caches.RequestType.RMW_Read.miss_latency_hist_seqr::samples         7031                       (Unspecified)
system.caches.RequestType.RMW_Read.miss_latency_hist_seqr::mean   208.557531                       (Unspecified)
system.caches.RequestType.RMW_Read.miss_latency_hist_seqr::gmean   125.021553                       (Unspecified)
system.caches.RequestType.RMW_Read.miss_latency_hist_seqr::stdev   248.051004                       (Unspecified)
system.caches.RequestType.RMW_Read.miss_latency_hist_seqr |        5069     72.10%     72.10% |         912     12.97%     85.07% |         861     12.25%     97.31% |         115      1.64%     98.95% |          16      0.23%     99.18% |          21      0.30%     99.47% |          31      0.44%     99.91% |           4      0.06%     99.97% |           2      0.03%    100.00% |           0      0.00%    100.00% (Unspecified)
system.caches.RequestType.RMW_Read.miss_latency_hist_seqr::total         7031                       (Unspecified)
system.caches.RequestType.Locked_RMW_Read.latency_hist_seqr::bucket_size          256                       (Unspecified)
system.caches.RequestType.Locked_RMW_Read.latency_hist_seqr::max_bucket         2559                       (Unspecified)
system.caches.RequestType.Locked_RMW_Read.latency_hist_seqr::samples         2778                       (Unspecified)
system.caches.RequestType.Locked_RMW_Read.latency_hist_seqr::mean    29.365371                       (Unspecified)
system.caches.RequestType.Locked_RMW_Read.latency_hist_seqr::gmean     1.517199                       (Unspecified)
system.caches.RequestType.Locked_RMW_Read.latency_hist_seqr::stdev   127.014714                       (Unspecified)
system.caches.RequestType.Locked_RMW_Read.latency_hist_seqr |        2635     94.85%     94.85% |          86      3.10%     97.95% |          50      1.80%     99.75% |           3      0.11%     99.86% |           0      0.00%     99.86% |           1      0.04%     99.89% |           1      0.04%     99.93% |           2      0.07%    100.00% |           0      0.00%    100.00% |           0      0.00%    100.00% (Unspecified)
system.caches.RequestType.Locked_RMW_Read.latency_hist_seqr::total         2778                       (Unspecified)
system.caches.RequestType.Locked_RMW_Read.hit_latency_hist_seqr::bucket_size            1                       (Unspecified)
system.caches.RequestType.Locked_RMW_Read.hit_latency_hist_seqr::max_bucket            9                       (Unspecified)
system.caches.RequestType.Locked_RMW_Read.hit_latency_hist_seqr::samples         2571                       (Unspecified)
system.caches.RequestType.Locked_RMW_Read.hit_latency_hist_seqr::mean            1                       (Unspecified)
system.caches.RequestType.Locked_RMW_Read.hit_latency_hist_seqr::gmean            1                       (Unspecified)
system.caches.RequestType.Locked_RMW_Read.hit_latency_hist_seqr |           0      0.00%      0.00% |        2571    100.00%    100.00% |           0      0.00%    100.00% |           0      0.00%    100.00% |           0      0.00%    100.00% |           0      0.00%    100.00% |           0      0.00%    100.00% |           0      0.00%    100.00% |           0      0.00%    100.00% |           0      0.00%    100.00% (Unspecified)
system.caches.RequestType.Locked_RMW_Read.hit_latency_hist_seqr::total         2571                       (Unspecified)
system.caches.RequestType.Locked_RMW_Read.miss_latency_hist_seqr::bucket_size          256                       (Unspecified)
system.caches.RequestType.Locked_RMW_Read.miss_latency_hist_seqr::max_bucket         2559                       (Unspecified)
system.caches.RequestType.Locked_RMW_Read.miss_latency_hist_seqr::samples          207                       (Unspecified)
system.caches.RequestType.Locked_RMW_Read.miss_latency_hist_seqr::mean   381.671498                       (Unspecified)
system.caches.RequestType.Locked_RMW_Read.miss_latency_hist_seqr::gmean   268.933384                       (Unspecified)
system.caches.RequestType.Locked_RMW_Read.miss_latency_hist_seqr::stdev   287.601748                       (Unspecified)
system.caches.RequestType.Locked_RMW_Read.miss_latency_hist_seqr |          64     30.92%     30.92% |          86     41.55%     72.46% |          50     24.15%     96.62% |           3      1.45%     98.07% |           0      0.00%     98.07% |           1      0.48%     98.55% |           1      0.48%     99.03% |           2      0.97%    100.00% |           0      0.00%    100.00% |           0      0.00%    100.00% (Unspecified)
system.caches.RequestType.Locked_RMW_Read.miss_latency_hist_seqr::total          207                       (Unspecified)
system.caches.RequestType.Locked_RMW_Write.latency_hist_seqr::bucket_size            1                       (Unspecified)
system.caches.RequestType.Locked_RMW_Write.latency_hist_seqr::max_bucket            9                       (Unspecified)
system.caches.RequestType.Locked_RMW_Write.latency_hist_seqr::samples         2778                       (Unspecified)
system.caches.RequestType.Locked_RMW_Write.latency_hist_seqr::mean            1                       (Unspecified)
system.caches.RequestType.Locked_RMW_Write.latency_hist_seqr::gmean            1                       (Unspecified)
system.caches.RequestType.Locked_RMW_Write.latency_hist_seqr |           0      0.00%      0.00% |        2778    100.00%    100.00% |           0      0.00%    100.00% |           0      0.00%    100.00% |           0      0.00%    100.00% |           0      0.00%    100.00% |           0      0.00%    100.00% |           0      0.00%    100.00% |           0      0.00%    100.00% |           0      0.00%    100.00% (Unspecified)
system.caches.RequestType.Locked_RMW_Write.latency_hist_seqr::total         2778                       (Unspecified)
system.caches.RequestType.Locked_RMW_Write.hit_latency_hist_seqr::bucket_size            1                       (Unspecified)
system.caches.RequestType.Locked_RMW_Write.hit_latency_hist_seqr::max_bucket            9                       (Unspecified)
system.caches.RequestType.Locked_RMW_Write.hit_latency_hist_seqr::samples         2778                       (Unspecified)
system.caches.RequestType.Locked_RMW_Write.hit_latency_hist_seqr::mean            1                       (Unspecified)
system.caches.RequestType.Locked_RMW_Write.hit_latency_hist_seqr::gmean            1                       (Unspecified)
system.caches.RequestType.Locked_RMW_Write.hit_latency_hist_seqr |           0      0.00%      0.00% |        2778    100.00%    100.00% |           0      0.00%    100.00% |           0      0.00%    100.00% |           0      0.00%    100.00% |           0      0.00%    100.00% |           0      0.00%    100.00% |           0      0.00%    100.00% |           0      0.00%    100.00% |           0      0.00%    100.00% (Unspecified)
system.caches.RequestType.Locked_RMW_Write.hit_latency_hist_seqr::total         2778                       (Unspecified)
system.caches.controllers0.fullyBusyCycles          879                       # cycles for which number of transistions == max transitions (Unspecified)
system.caches.controllers0.delayHistogram::samples       769741                       # delay_histogram (Unspecified)
system.caches.controllers0.delayHistogram::mean     0.008379                       # delay_histogram (Unspecified)
[...]
system.o3Cpu7.fetch.nisnDist::total         238885536                       # Number of instructions fetched each cycle (Total) (Count)
system.o3Cpu7.fetch.branchRate               0.025542                       # Number of branch fetches per cycle (Ratio)
system.o3Cpu7.fetch.rate                     0.203615                       # Number of inst fetches per cycle ((Count/Cycle))
system.o3Cpu7.iew.idleCycles                        0                       # Number of cycles IEW is idle (Cycle)
system.o3Cpu7.iew.squashCycles                   1913                       # Number of cycles IEW is squashing (Cycle)
system.o3Cpu7.iew.blockCycles               197471717                       # Number of cycles IEW is blocking (Cycle)
system.o3Cpu7.iew.unblockCycles                713462                       # Number of cycles IEW is unblocking (Cycle)
system.o3Cpu7.iew.dispatchedInsts            85118038                       # Number of instructions dispatched to IQ (Count)
system.o3Cpu7.iew.dispSquashedInsts               819                       # Number of squashed instructions skipped by dispatch (Count)
system.o3Cpu7.iew.dispLoadInsts              12161547                       # Number of dispatched load instructions (Count)
system.o3Cpu7.iew.dispStoreInsts              6082012                       # Number of dispatched store instructions (Count)
system.o3Cpu7.iew.dispNonSpecInsts               2015                       # Number of dispatched non-speculative instructions (Count)
system.o3Cpu7.iew.iqFullEvents                 469970                       # Number of times the IQ has become full, causing a stall (Count)
system.o3Cpu7.iew.lsqFullEvents                  2185                       # Number of times the LSQ has become full, causing a stall (Count)
system.o3Cpu7.iew.memOrderViolationEvents         1004                       # Number of memory order violations (Count)
system.o3Cpu7.iew.predictedTakenIncorrect          512                       # Number of branches that were predicted taken incorrectly (Count)
system.o3Cpu7.iew.predictedNotTakenIncorrect          500                       # Number of branches that were predicted not taken incorrectly (Count)
system.o3Cpu7.iew.branchMispredicts              1012                       # Number of branch mispredicts detected at execute (Count)
system.o3Cpu7.iew.instsToCommit              85083363                       # Cumulative count of insts sent to commit (Count)
system.o3Cpu7.iew.writebackCount             85082990                       # Cumulative count of insts written-back (Count)
system.o3Cpu7.iew.producerInst               68549807                       # Number of instructions producing a value (Count)
system.o3Cpu7.iew.consumerInst              103038052                       # Number of instructions consuming a value (Count)
system.o3Cpu7.iew.wbRate                     0.356091                       # Insts written-back per cycle ((Count/Cycle))
system.o3Cpu7.iew.wbFanout                   0.665286                       # Average fanout of values written-back ((Count/Count))
system.o3Cpu7.interrupts.clk_domain.clock         3200                       # Clock period in ticks (Tick)
system.o3Cpu7.lsq0.forwLoads                    15548                       # Number of loads that had data forwarded from stores (Count)
system.o3Cpu7.lsq0.squashedLoads                11715                       # Number of loads squashed (Count)
system.o3Cpu7.lsq0.ignoredResponses                33                       # Number of memory responses ignored because the instruction is squashed (Count)
system.o3Cpu7.lsq0.memOrderViolation             1004                       # Number of memory ordering violations (Count)
system.o3Cpu7.lsq0.squashedStores                5698                       # Number of stores squashed (Count)
system.o3Cpu7.lsq0.rescheduledLoads                36                       # Number of loads that were rescheduled (Count)
system.o3Cpu7.lsq0.blockedByCache                 102                       # Number of times an access to memory failed due to the cache being blocked (Count)
system.o3Cpu7.lsq0.loadToUse::samples        12149796                       # Distribution of cycle latency between the first time a load is issued and its completion (Unspecified)
system.o3Cpu7.lsq0.loadToUse::mean          19.689616                       # Distribution of cycle latency between the first time a load is issued and its completion (Unspecified)
system.o3Cpu7.lsq0.loadToUse::stdev        101.241450                       # Distribution of cycle latency between the first time a load is issued and its completion (Unspecified)
system.o3Cpu7.lsq0.loadToUse::0-9            11767536     96.85%     96.85% # Distribution of cycle latency between the first time a load is issued and its completion (Unspecified)
system.o3Cpu7.lsq0.loadToUse::10-19               995      0.01%     96.86% # Distribution of cycle latency between the first time a load is issued and its completion (Unspecified)
system.o3Cpu7.lsq0.loadToUse::20-29               550      0.00%     96.87% # Distribution of cycle latency between the first time a load is issued and its completion (Unspecified)
system.o3Cpu7.lsq0.loadToUse::30-39               145      0.00%     96.87% # Distribution of cycle latency between the first time a load is issued and its completion (Unspecified)
system.o3Cpu7.lsq0.loadToUse::40-49                87      0.00%     96.87% # Distribution of cycle latency between the first time a load is issued and its completion (Unspecified)
system.o3Cpu7.lsq0.loadToUse::50-59                22      0.00%     96.87% # Distribution of cycle latency between the first time a load is issued and its completion (Unspecified)
system.o3Cpu7.lsq0.loadToUse::60-69                17      0.00%     96.87% # Distribution of cycle latency between the first time a load is issued and its completion (Unspecified)
system.o3Cpu7.lsq0.loadToUse::70-79               600      0.00%     96.87% # Distribution of cycle latency between the first time a load is issued and its completion (Unspecified)
system.o3Cpu7.lsq0.loadToUse::80-89                38      0.00%     96.87% # Distribution of cycle latency between the first time a load is issued and its completion (Unspecified)
system.o3Cpu7.lsq0.loadToUse::90-99                 4      0.00%     96.87% # Distribution of cycle latency between the first time a load is issued and its completion (Unspecified)
system.o3Cpu7.lsq0.loadToUse::100-109               8      0.00%     96.87% # Distribution of cycle latency between the first time a load is issued and its completion (Unspecified)
system.o3Cpu7.lsq0.loadToUse::110-119               2      0.00%     96.87% # Distribution of cycle latency between the first time a load is issued and its completion (Unspecified)
system.o3Cpu7.lsq0.loadToUse::120-129               5      0.00%     96.87% # Distribution of cycle latency between the first time a load is issued and its completion (Unspecified)
system.o3Cpu7.lsq0.loadToUse::130-139               6      0.00%     96.87% # Distribution of cycle latency between the first time a load is issued and its completion (Unspecified)
system.o3Cpu7.lsq0.loadToUse::140-149               2      0.00%     96.87% # Distribution of cycle latency between the first time a load is issued and its completion (Unspecified)
system.o3Cpu7.lsq0.loadToUse::170-179               3      0.00%     96.87% # Distribution of cycle latency between the first time a load is issued and its completion (Unspecified)
system.o3Cpu7.lsq0.loadToUse::180-189               4      0.00%     96.87% # Distribution of cycle latency between the first time a load is issued and its completion (Unspecified)
system.o3Cpu7.lsq0.loadToUse::190-199               7      0.00%     96.87% # Distribution of cycle latency between the first time a load is issued and its completion (Unspecified)
system.o3Cpu7.lsq0.loadToUse::200-209               5      0.00%     96.87% # Distribution of cycle latency between the first time a load is issued and its completion (Unspecified)
system.o3Cpu7.lsq0.loadToUse::210-219               3      0.00%     96.87% # Distribution of cycle latency between the first time a load is issued and its completion (Unspecified)
system.o3Cpu7.lsq0.loadToUse::220-229               9      0.00%     96.87% # Distribution of cycle latency between the first time a load is issued and its completion (Unspecified)
system.o3Cpu7.lsq0.loadToUse::230-239              10      0.00%     96.87% # Distribution of cycle latency between the first time a load is issued and its completion (Unspecified)
system.o3Cpu7.lsq0.loadToUse::240-249              10      0.00%     96.87% # Distribution of cycle latency between the first time a load is issued and its completion (Unspecified)
system.o3Cpu7.lsq0.loadToUse::250-259               7      0.00%     96.87% # Distribution of cycle latency between the first time a load is issued and its completion (Unspecified)
system.o3Cpu7.lsq0.loadToUse::260-269               8      0.00%     96.87% # Distribution of cycle latency between the first time a load is issued and its completion (Unspecified)
system.o3Cpu7.lsq0.loadToUse::270-279              14      0.00%     96.87% # Distribution of cycle latency between the first time a load is issued and its completion (Unspecified)
system.o3Cpu7.lsq0.loadToUse::280-289               8      0.00%     96.87% # Distribution of cycle latency between the first time a load is issued and its completion (Unspecified)
system.o3Cpu7.lsq0.loadToUse::290-299              27      0.00%     96.88% # Distribution of cycle latency between the first time a load is issued and its completion (Unspecified)
system.o3Cpu7.lsq0.loadToUse::overflows        379664      3.12%    100.00% # Distribution of cycle latency between the first time a load is issued and its completion (Unspecified)
system.o3Cpu7.lsq0.loadToUse::min_value             2                       # Distribution of cycle latency between the first time a load is issued and its completion (Unspecified)
system.o3Cpu7.lsq0.loadToUse::max_value          4050                       # Distribution of cycle latency between the first time a load is issued and its completion (Unspecified)
system.o3Cpu7.lsq0.loadToUse::total          12149796                       # Distribution of cycle latency between the first time a load is issued and its completion (Unspecified)
system.o3Cpu7.mmu.dtb.rdAccesses             12158627                       # TLB accesses on read requests (Count)
system.o3Cpu7.mmu.dtb.wrAccesses              6079649                       # TLB accesses on write requests (Count)
system.o3Cpu7.mmu.dtb.rdMisses                   1610                       # TLB misses on read requests (Count)
system.o3Cpu7.mmu.dtb.wrMisses                   1013                       # TLB misses on write requests (Count)
system.o3Cpu7.mmu.dtb.walker.power_state.pwrStateResidencyTicks::UNDEFINED  48797290400                       # Cumulative time (in ticks) in various power states (Tick)
system.o3Cpu7.mmu.itb.rdAccesses                    0                       # TLB accesses on read requests (Count)
system.o3Cpu7.mmu.itb.wrAccesses                23941                       # TLB accesses on write requests (Count)
system.o3Cpu7.mmu.itb.rdMisses                      0                       # TLB misses on read requests (Count)
system.o3Cpu7.mmu.itb.wrMisses                    104                       # TLB misses on write requests (Count)
system.o3Cpu7.mmu.itb.walker.power_state.pwrStateResidencyTicks::UNDEFINED  48797290400                       # Cumulative time (in ticks) in various power states (Tick)
system.o3Cpu7.power_state.pwrStateResidencyTicks::OFF  48797290400                       # Cumulative time (in ticks) in various power states (Tick)
system.o3Cpu7.rename.squashCycles                1913                       # Number of cycles rename is squashing (Cycle)
system.o3Cpu7.rename.idleCycles               3560482                       # Number of cycles rename is idle (Cycle)
system.o3Cpu7.rename.blockCycles            202375666                       # Number of cycles rename is blocking (Cycle)
system.o3Cpu7.rename.serializeStallCycles       234543                       # count of cycles rename stalled for serializing inst (Cycle)
system.o3Cpu7.rename.runCycles                3548738                       # Number of cycles rename is running (Cycle)
system.o3Cpu7.rename.unblockCycles           29164194                       # Number of cycles rename is unblocking (Cycle)
system.o3Cpu7.rename.renamedInsts            85125640                       # Number of instructions processed by rename (Count)
system.o3Cpu7.rename.ROBFullEvents               4889                       # Number of times rename has blocked due to ROB full (Count)
system.o3Cpu7.rename.IQFullEvents            29026481                       # Number of times rename has blocked due to IQ full (Count)
system.o3Cpu7.rename.LQFullEvents                5908                       # Number of times rename has blocked due to LQ full (Count)
system.o3Cpu7.rename.SQFullEvents                4741                       # Number of times rename has blocked due to SQ full (Count)
system.o3Cpu7.rename.renamedOperands        194346071                       # Number of destination operands rename has renamed (Count)
system.o3Cpu7.rename.lookups                322042126                       # Number of register rename lookups that rename has made (Count)
system.o3Cpu7.rename.intLookups             139759341                       # Number of integer rename lookups (Count)
system.o3Cpu7.rename.committedMaps          194211599                       # Number of HB maps that are committed (Count)
system.o3Cpu7.rename.undoneMaps                133888                       # Number of HB maps that are undone due to squashing (Count)
system.o3Cpu7.rename.serializing                 2184                       # count of serializing insts renamed (Count)
system.o3Cpu7.rename.tempSerializing             2263                       # count of temporary serializing insts renamed (Count)
system.o3Cpu7.rename.skidInsts               66990479                       # count of insts added to the skid buffer (Count)
system.o3Cpu7.rob.reads                     323983666                       # The number of ROB reads (Count)
system.o3Cpu7.rob.writes                    170229136                       # The number of ROB writes (Count)
system.o3Cpu7.thread_0.numInsts              48570518                       # Number of Instructions committed (Count)
system.o3Cpu7.thread_0.numOps                85041038                       # Number of Ops committed (Count)
system.o3Cpu7.thread_0.numMemRefs                   0                       # Number of Memory References (Count)
system.pc.bad_addr.power_state.pwrStateResidencyTicks::UNDEFINED  48797290400                       # Cumulative time (in ticks) in various power states (Tick)
system.pc.com_1.power_state.pwrStateResidencyTicks::UNDEFINED  48797290400                       # Cumulative time (in ticks) in various power states (Tick)
system.pc.default_bus.power_state.pwrStateResidencyTicks::UNDEFINED  48797290400                       # Cumulative time (in ticks) in various power states (Tick)
system.pc.empty_isa.power_state.pwrStateResidencyTicks::UNDEFINED  48797290400                       # Cumulative time (in ticks) in various power states (Tick)
system.pc.fake_com_2.power_state.pwrStateResidencyTicks::UNDEFINED  48797290400                       # Cumulative time (in ticks) in various power states (Tick)
system.pc.fake_com_3.power_state.pwrStateResidencyTicks::UNDEFINED  48797290400                       # Cumulative time (in ticks) in various power states (Tick)
system.pc.fake_com_4.power_state.pwrStateResidencyTicks::UNDEFINED  48797290400                       # Cumulative time (in ticks) in various power states (Tick)
system.pc.fake_floppy.power_state.pwrStateResidencyTicks::UNDEFINED  48797290400                       # Cumulative time (in ticks) in various power states (Tick)
system.pc.pci_host.power_state.pwrStateResidencyTicks::UNDEFINED  48797290400                       # Cumulative time (in ticks) in various power states (Tick)
system.pc.south_bridge.cmos.power_state.pwrStateResidencyTicks::UNDEFINED  48797290400                       # Cumulative time (in ticks) in various power states (Tick)
system.pc.south_bridge.dma1.power_state.pwrStateResidencyTicks::UNDEFINED  48797290400                       # Cumulative time (in ticks) in various power states (Tick)
system.pc.south_bridge.ide.disks0.IdeDisk.dmaReadFullPages            0                       # Number of full page size DMA reads (not PRD). (Count)
system.pc.south_bridge.ide.disks0.IdeDisk.dmaReadBytes            0                       # Number of bytes transfered via DMA reads (not PRD). (Byte)
system.pc.south_bridge.ide.disks0.IdeDisk.dmaReadTxs            0                       # Number of DMA read transactions (not PRD). (Count)
system.pc.south_bridge.ide.disks0.IdeDisk.dmaWriteFullPages            0                       # Number of full page size DMA writes. (Count)
system.pc.south_bridge.ide.disks0.IdeDisk.dmaWriteBytes            0                       # Number of bytes transfered via DMA writes. (Byte)
system.pc.south_bridge.ide.disks0.IdeDisk.dmaWriteTxs            0                       # Number of DMA write transactions. (Count)
system.pc.south_bridge.ide.disks1.IdeDisk.dmaReadFullPages            0                       # Number of full page size DMA reads (not PRD). (Count)
system.pc.south_bridge.ide.disks1.IdeDisk.dmaReadBytes            0                       # Number of bytes transfered via DMA reads (not PRD). (Byte)
system.pc.south_bridge.ide.disks1.IdeDisk.dmaReadTxs            0                       # Number of DMA read transactions (not PRD). (Count)
system.pc.south_bridge.ide.disks1.IdeDisk.dmaWriteFullPages            0                       # Number of full page size DMA writes. (Count)
system.pc.south_bridge.ide.disks1.IdeDisk.dmaWriteBytes            0                       # Number of bytes transfered via DMA writes. (Byte)
system.pc.south_bridge.ide.disks1.IdeDisk.dmaWriteTxs            0                       # Number of DMA write transactions. (Count)
system.pc.south_bridge.ide.power_state.pwrStateResidencyTicks::UNDEFINED  48797290400                       # Cumulative time (in ticks) in various power states (Tick)
system.pc.south_bridge.io_apic.power_state.pwrStateResidencyTicks::UNDEFINED  48797290400                       # Cumulative time (in ticks) in various power states (Tick)
system.pc.south_bridge.keyboard.power_state.pwrStateResidencyTicks::UNDEFINED  48797290400                       # Cumulative time (in ticks) in various power states (Tick)
system.pc.south_bridge.pic1.power_state.pwrStateResidencyTicks::UNDEFINED  48797290400                       # Cumulative time (in ticks) in various power states (Tick)
system.pc.south_bridge.pic2.power_state.pwrStateResidencyTicks::UNDEFINED  48797290400                       # Cumulative time (in ticks) in various power states (Tick)
system.pc.south_bridge.pit.power_state.pwrStateResidencyTicks::UNDEFINED  48797290400                       # Cumulative time (in ticks) in various power states (Tick)
system.pc.south_bridge.speaker.power_state.pwrStateResidencyTicks::UNDEFINED  48797290400                       # Cumulative time (in ticks) in various power states (Tick)
system.workload.inst.arm                            0                       # number of arm instructions executed (Count)
system.workload.inst.quiesce                        0                       # number of quiesce instructions executed (Count)

---------- End Simulation Statistics   ----------
