
---------- Begin Simulation Statistics ----------
simSeconds                                   0.043730                       # Number of seconds simulated (Second)
simTicks                                  43729996250                       # Number of ticks simulated (Tick)
finalTick                                108093110097200                       # Number of ticks from beginning of simulation (restored from checkpoints and never reset) (Tick)
simFreq                                  1000000000000                       # The number of ticks per simulated second ((Tick/Second))
hostSeconds                                   9949.93                       # Real time elapsed on the host (Second)
hostTickRate                                  4395007                       # The number of ticks simulated per host second (ticks/s) ((Tick/Second))
hostMemory                                   20017408                       # Number of bytes of host memory used (Byte)
simInsts                                    232451386                       # Number of instructions simulated (Count)
simOps                                      428506895                       # Number of ops (including micro ops) simulated (Count)
hostInstRate                                    23362                       # Simulator instruction rate (inst/s) ((Count/Second))
hostOpRate                                      43066                       # Simulator op (including micro ops) rate (op/s) ((Count/Second))
system.caches.delayHistogram::bucket_size           32                       # delay histogram for all message (Unspecified)
system.caches.delayHistogram::max_bucket          319                       # delay histogram for all message (Unspecified)
system.caches.delayHistogram::samples        79432251                       # delay histogram for all message (Unspecified)
system.caches.delayHistogram::mean           4.503211                       # delay histogram for all message (Unspecified)
system.caches.delayHistogram::stdev         10.827203                       # delay histogram for all message (Unspecified)
system.caches.delayHistogram             |    75675133     95.27%     95.27% |     3538511      4.45%     99.72% |      218604      0.28%    100.00% |           0      0.00%    100.00% |           1      0.00%    100.00% |           0      0.00%    100.00% |           1      0.00%    100.00% |           0      0.00%    100.00% |           1      0.00%    100.00% |           0      0.00%    100.00% # delay histogram for all message (Unspecified)
system.caches.delayHistogram::total          79432251                       # delay histogram for all message (Unspecified)
system.caches.m_outstandReqHistSeqr::bucket_size            2                       (Unspecified)
system.caches.m_outstandReqHistSeqr::max_bucket           19                       (Unspecified)
system.caches.m_outstandReqHistSeqr::samples     55696678                       (Unspecified)
system.caches.m_outstandReqHistSeqr::mean     9.539208                       (Unspecified)
system.caches.m_outstandReqHistSeqr::gmean     8.082184                       (Unspecified)
system.caches.m_outstandReqHistSeqr::stdev     4.133483                       (Unspecified)
system.caches.m_outstandReqHistSeqr      |     3619581      6.50%      6.50% |     1809145      3.25%      9.75% |     4362859      7.83%     17.58% |     6321578     11.35%     28.93% |     8755216     15.72%     44.65% |    11907207     21.38%     66.03% |     8715410     15.65%     81.68% |     5797117     10.41%     92.08% |     4408565      7.92%    100.00% |           0      0.00%    100.00% (Unspecified)
system.caches.m_outstandReqHistSeqr::total     55696678                       (Unspecified)
system.caches.m_latencyHistSeqr::bucket_size         1024                       (Unspecified)
system.caches.m_latencyHistSeqr::max_bucket        10239                       (Unspecified)
system.caches.m_latencyHistSeqr::samples     55699562                       (Unspecified)
system.caches.m_latencyHistSeqr::mean       84.848045                       (Unspecified)
system.caches.m_latencyHistSeqr::gmean       5.712658                       (Unspecified)
system.caches.m_latencyHistSeqr::stdev     252.297460                       (Unspecified)
system.caches.m_latencyHistSeqr          |    55031339     98.80%     98.80% |      577685      1.04%     99.84% |       85586      0.15%     99.99% |        4278      0.01%    100.00% |         542      0.00%    100.00% |         111      0.00%    100.00% |          21      0.00%    100.00% |           0      0.00%    100.00% |           0      0.00%    100.00% |           0      0.00%    100.00% (Unspecified)
system.caches.m_latencyHistSeqr::total       55699562                       (Unspecified)
system.caches.m_hitLatencyHistSeqr::bucket_size          512                       (Unspecified)
system.caches.m_hitLatencyHistSeqr::max_bucket         5119                       (Unspecified)
system.caches.m_hitLatencyHistSeqr::samples     30549051                       (Unspecified)
system.caches.m_hitLatencyHistSeqr::mean     1.113123                       (Unspecified)
system.caches.m_hitLatencyHistSeqr::gmean     1.067867                       (Unspecified)
system.caches.m_hitLatencyHistSeqr::stdev     3.921298                       (Unspecified)
system.caches.m_hitLatencyHistSeqr       |    30548686    100.00%    100.00% |         258      0.00%    100.00% |          49      0.00%    100.00% |          39      0.00%    100.00% |          10      0.00%    100.00% |           7      0.00%    100.00% |           2      0.00%    100.00% |           0      0.00%    100.00% |           0      0.00%    100.00% |           0      0.00%    100.00% (Unspecified)
system.caches.m_hitLatencyHistSeqr::total     30549051                       (Unspecified)
system.caches.m_missLatencyHistSeqr::bucket_size         1024                       (Unspecified)
system.caches.m_missLatencyHistSeqr::max_bucket        10239                       (Unspecified)
system.caches.m_missLatencyHistSeqr::samples     25150511                       (Unspecified)
system.caches.m_missLatencyHistSeqr::mean   186.556610                       (Unspecified)
system.caches.m_missLatencyHistSeqr::gmean    43.801925                       (Unspecified)
system.caches.m_missLatencyHistSeqr::stdev   349.415857                       (Unspecified)
system.caches.m_missLatencyHistSeqr      |    24482395     97.34%     97.34% |      577597      2.30%     99.64% |       85569      0.34%     99.98% |        4276      0.02%    100.00% |         542      0.00%    100.00% |         111      0.00%    100.00% |          21      0.00%    100.00% |           0      0.00%    100.00% |           0      0.00%    100.00% |           0      0.00%    100.00% (Unspecified)
system.caches.m_missLatencyHistSeqr::total     25150511                       (Unspecified)
system.caches.delayVCHist.vnet_0::bucket_size           32                       # delay histogram for vnet_0 (Unspecified)
system.caches.delayVCHist.vnet_0::max_bucket          319                       # delay histogram for vnet_0 (Unspecified)
system.caches.delayVCHist.vnet_0::samples     36643829                       # delay histogram for vnet_0 (Unspecified)
system.caches.delayVCHist.vnet_0::mean       0.104004                       # delay histogram for vnet_0 (Unspecified)
system.caches.delayVCHist.vnet_0::stdev      0.801973                       # delay histogram for vnet_0 (Unspecified)
system.caches.delayVCHist.vnet_0         |    36643439    100.00%    100.00% |         359      0.00%    100.00% |          28      0.00%    100.00% |           0      0.00%    100.00% |           1      0.00%    100.00% |           0      0.00%    100.00% |           1      0.00%    100.00% |           0      0.00%    100.00% |           1      0.00%    100.00% |           0      0.00%    100.00% # delay histogram for vnet_0 (Unspecified)
system.caches.delayVCHist.vnet_0::total      36643829                       # delay histogram for vnet_0 (Unspecified)
system.caches.delayVCHist.vnet_1::bucket_size           16                       # delay histogram for vnet_1 (Unspecified)
system.caches.delayVCHist.vnet_1::max_bucket          159                       # delay histogram for vnet_1 (Unspecified)
system.caches.delayVCHist.vnet_1::samples     42541786                       # delay histogram for vnet_1 (Unspecified)
system.caches.delayVCHist.vnet_1::mean       8.318578                       # delay histogram for vnet_1 (Unspecified)
system.caches.delayVCHist.vnet_1::stdev     13.674269                       # delay histogram for vnet_1 (Unspecified)
system.caches.delayVCHist.vnet_1         |    32881106     77.29%     77.29% |     5903952     13.88%     91.17% |     2671584      6.28%     97.45% |      866568      2.04%     99.49% |      209226      0.49%     99.98% |        9350      0.02%    100.00% |           0      0.00%    100.00% |           0      0.00%    100.00% |           0      0.00%    100.00% |           0      0.00%    100.00% # delay histogram for vnet_1 (Unspecified)
system.caches.delayVCHist.vnet_1::total      42541786                       # delay histogram for vnet_1 (Unspecified)
system.caches.delayVCHist.vnet_2::bucket_size            1                       # delay histogram for vnet_2 (Unspecified)
system.caches.delayVCHist.vnet_2::max_bucket            9                       # delay histogram for vnet_2 (Unspecified)
system.caches.delayVCHist.vnet_2::samples       246636                       # delay histogram for vnet_2 (Unspecified)
system.caches.delayVCHist.vnet_2::mean       0.007987                       # delay histogram for vnet_2 (Unspecified)
system.caches.delayVCHist.vnet_2::stdev      0.126268                       # delay histogram for vnet_2 (Unspecified)
system.caches.delayVCHist.vnet_2         |      245652     99.60%     99.60% |           0      0.00%     99.60% |         983      0.40%    100.00% |           0      0.00%    100.00% |           1      0.00%    100.00% |           0      0.00%    100.00% |           0      0.00%    100.00% |           0      0.00%    100.00% |           0      0.00%    100.00% |           0      0.00%    100.00% # delay histogram for vnet_2 (Unspecified)
system.caches.delayVCHist.vnet_2::total        246636                       # delay histogram for vnet_2 (Unspecified)
system.caches.L1Cache_Controller.Load    |     6609124     12.21%     12.21% |     6819149     12.60%     24.80% |     6811300     12.58%     37.38% |     6820963     12.60%     49.98% |     6822544     12.60%     62.58% |     6820326     12.60%     75.18% |     6790118     12.54%     87.72% |     6647999     12.28%    100.00% (Unspecified)
system.caches.L1Cache_Controller.Load::total     54141523                       (Unspecified)
system.caches.L1Cache_Controller.Ifetch  |      112407     13.62%     13.62% |      101644     12.32%     25.93% |      101506     12.30%     38.23% |      101623     12.31%     50.55% |      101833     12.34%     62.88% |      101912     12.35%     75.23% |      101694     12.32%     87.55% |      102744     12.45%    100.00% (Unspecified)
system.caches.L1Cache_Controller.Ifetch::total       825363                       (Unspecified)
system.caches.L1Cache_Controller.Store   |      103186     14.08%     14.08% |       89909     12.27%     26.35% |       89762     12.25%     38.60% |       89779     12.25%     50.86% |       89859     12.26%     63.12% |       89804     12.26%     75.38% |       89764     12.25%     87.63% |       90635     12.37%    100.00% (Unspecified)
system.caches.L1Cache_Controller.Store::total       732698                       (Unspecified)
system.caches.L1Cache_Controller.Inv     |       29691     13.34%     13.34% |       27145     12.20%     25.54% |       27868     12.52%     38.06% |       27158     12.20%     50.26% |       27164     12.21%     62.47% |       27671     12.43%     74.90% |       27296     12.26%     87.16% |       28569     12.84%    100.00% (Unspecified)
system.caches.L1Cache_Controller.Inv::total       222562                       (Unspecified)
system.caches.L1Cache_Controller.L1_Replacement |     3172126     12.65%     12.65% |     3126330     12.46%     25.11% |     3128711     12.47%     37.58% |     3132961     12.49%     50.07% |     3146996     12.55%     62.62% |     3150305     12.56%     75.18% |     3141705     12.52%     87.70% |     3085552     12.30%    100.00% (Unspecified)
system.caches.L1Cache_Controller.L1_Replacement::total     25084686                       (Unspecified)
system.caches.L1Cache_Controller.Fwd_GETX |           5      5.21%      5.21% |          16     16.67%     21.88% |          14     14.58%     36.46% |          12     12.50%     48.96% |          10     10.42%     59.38% |          12     12.50%     71.88% |          13     13.54%     85.42% |          14     14.58%    100.00% (Unspecified)
system.caches.L1Cache_Controller.Fwd_GETX::total           96                       (Unspecified)
system.caches.L1Cache_Controller.Fwd_GETS |        3582     14.94%     14.94% |        3100     12.93%     27.87% |        2934     12.24%     40.10% |        2703     11.27%     51.38% |        2936     12.24%     63.62% |        2806     11.70%     75.32% |        2953     12.32%     87.64% |        2964     12.36%    100.00% (Unspecified)
system.caches.L1Cache_Controller.Fwd_GETS::total        23978                       (Unspecified)
system.caches.L1Cache_Controller.Data    |          44     80.00%     80.00% |           2      3.64%     83.64% |           0      0.00%     83.64% |           0      0.00%     83.64% |           3      5.45%     89.09% |           3      5.45%     94.55% |           3      5.45%    100.00% |           0      0.00%    100.00% (Unspecified)
system.caches.L1Cache_Controller.Data::total           55                       (Unspecified)
system.caches.L1Cache_Controller.Data_Exclusive |      721018     12.65%     12.65% |      711110     12.47%     25.12% |      711036     12.47%     37.59% |      712045     12.49%     50.08% |      715330     12.55%     62.62% |      716103     12.56%     75.18% |      713938     12.52%     87.70% |      701228     12.30%    100.00% (Unspecified)
system.caches.L1Cache_Controller.Data_Exclusive::total      5701808                       (Unspecified)
system.caches.L1Cache_Controller.DataS_fromL1 |        3111     12.97%     12.97% |        3353     13.98%     26.96% |        3119     13.01%     39.97% |        3028     12.63%     52.59% |        2630     10.97%     63.56% |        2879     12.01%     75.57% |        2784     11.61%     87.18% |        3074     12.82%    100.00% (Unspecified)
system.caches.L1Cache_Controller.DataS_fromL1::total        23978                       (Unspecified)
system.caches.L1Cache_Controller.Data_all_Acks |     2454528     12.65%     12.65% |     2417815     12.46%     25.11% |     2420459     12.47%     37.58% |     2423780     12.49%     50.07% |     2434788     12.55%     62.62% |     2437065     12.56%     75.17% |     2430677     12.53%     87.70% |     2387069     12.30%    100.00% (Unspecified)
system.caches.L1Cache_Controller.Data_all_Acks::total     19406181                       (Unspecified)
system.caches.L1Cache_Controller.Ack     |       17130     13.39%     13.39% |       15695     12.27%     25.66% |       15878     12.41%     38.08% |       15685     12.26%     50.34% |       15977     12.49%     62.83% |       16028     12.53%     75.37% |       15799     12.35%     87.72% |       15707     12.28%    100.00% (Unspecified)
system.caches.L1Cache_Controller.Ack::total       127899                       (Unspecified)
system.caches.L1Cache_Controller.Ack_all |        2615     14.10%     14.10% |        2258     12.18%     26.28% |        2282     12.31%     38.58% |        2256     12.17%     50.75% |        2298     12.39%     63.14% |        2307     12.44%     75.58% |        2273     12.26%     87.84% |        2255     12.16%    100.00% (Unspecified)
system.caches.L1Cache_Controller.Ack_all::total        18544                       (Unspecified)
system.caches.L1Cache_Controller.WB_Ack  |      729945     12.75%     12.75% |      713194     12.46%     25.21% |      712596     12.45%     37.66% |      714581     12.49%     50.15% |      717496     12.54%     62.69% |      717949     12.54%     75.23% |      715799     12.51%     87.74% |      701940     12.26%    100.00% (Unspecified)
system.caches.L1Cache_Controller.WB_Ack::total      5723500                       (Unspecified)
system.caches.L1Cache_Controller.NP.Load |     3165682     12.64%     12.64% |     3122396     12.46%     25.10% |     3124715     12.47%     37.58% |     3128960     12.49%     50.07% |     3142941     12.55%     62.61% |     3146263     12.56%     75.17% |     3137687     12.53%     87.70% |     3081405     12.30%    100.00% (Unspecified)
system.caches.L1Cache_Controller.NP.Load::total     25050049                       (Unspecified)
system.caches.L1Cache_Controller.NP.Ifetch |        3077     27.11%     27.11% |        1072      9.44%     36.56% |        1157     10.19%     46.75% |        1155     10.18%     56.93% |        1176     10.36%     67.29% |        1181     10.41%     77.69% |        1171     10.32%     88.01% |        1361     11.99%    100.00% (Unspecified)
system.caches.L1Cache_Controller.NP.Ifetch::total        11350                       (Unspecified)
system.caches.L1Cache_Controller.NP.Store |        3794     14.90%     14.90% |        3112     12.22%     27.11% |        3086     12.12%     39.23% |        3093     12.14%     51.37% |        3126     12.27%     63.65% |        3115     12.23%     75.88% |        3094     12.15%     88.03% |        3050     11.97%    100.00% (Unspecified)
system.caches.L1Cache_Controller.NP.Store::total        25470                       (Unspecified)
system.caches.L1Cache_Controller.NP.Inv  |       21435     13.16%     13.16% |       20129     12.35%     25.51% |       20150     12.37%     37.88% |       20056     12.31%     50.19% |       20375     12.51%     62.69% |       20128     12.35%     75.05% |       20348     12.49%     87.54% |       20307     12.46%    100.00% (Unspecified)
system.caches.L1Cache_Controller.NP.Inv::total       162928                       (Unspecified)
system.caches.L1Cache_Controller.I.Load  |         146      6.27%      6.27% |         395     16.97%     23.24% |         395     16.97%     40.21% |         396     17.01%     57.22% |         258     11.08%     68.30% |         236     10.14%     78.44% |         198      8.51%     86.94% |         304     13.06%    100.00% (Unspecified)
system.caches.L1Cache_Controller.I.Load::total         2328                       (Unspecified)
system.caches.L1Cache_Controller.I.Ifetch |        6000     14.02%     14.02% |        5302     12.39%     26.41% |        5260     12.29%     38.70% |        5242     12.25%     50.95% |        5250     12.27%     63.22% |        5253     12.28%     75.49% |        5250     12.27%     87.76% |        5237     12.24%    100.00% (Unspecified)
system.caches.L1Cache_Controller.I.Ifetch::total        42794                       (Unspecified)
system.caches.L1Cache_Controller.I.Store |           3      5.77%      5.77% |           5      9.62%     15.38% |           4      7.69%     23.08% |           9     17.31%     40.38% |           5      9.62%     50.00% |           4      7.69%     57.69% |           5      9.62%     67.31% |          17     32.69%    100.00% (Unspecified)
system.caches.L1Cache_Controller.I.Store::total           52                       (Unspecified)
system.caches.L1Cache_Controller.I.L1_Replacement |        1764     14.28%     14.28% |        1064      8.62%     22.90% |        1812     14.67%     37.57% |        1209      9.79%     47.36% |        1020      8.26%     55.62% |        1798     14.56%     70.18% |        1246     10.09%     80.27% |        2436     19.73%    100.00% (Unspecified)
system.caches.L1Cache_Controller.I.L1_Replacement::total        12349                       (Unspecified)
system.caches.L1Cache_Controller.S.Load  |     1421375     10.91%     10.91% |     1728411     13.27%     24.17% |     1726060     13.25%     37.42% |     1708057     13.11%     50.53% |     1722067     13.22%     63.75% |     1705970     13.09%     76.84% |     1674053     12.85%     89.69% |     1343387     10.31%    100.00% (Unspecified)
system.caches.L1Cache_Controller.S.Load::total     13029380                       (Unspecified)
system.caches.L1Cache_Controller.S.Ifetch |      103330     13.40%     13.40% |       95270     12.35%     25.75% |       95089     12.33%     38.08% |       95226     12.35%     50.43% |       95407     12.37%     62.80% |       95478     12.38%     75.18% |       95273     12.35%     87.53% |       96146     12.47%    100.00% (Unspecified)
system.caches.L1Cache_Controller.S.Ifetch::total       771219                       (Unspecified)
system.caches.L1Cache_Controller.S.Store |        2571     13.91%     13.91% |        2256     12.20%     26.11% |        2282     12.34%     38.45% |        2256     12.20%     50.65% |        2295     12.41%     63.06% |        2304     12.46%     75.53% |        2270     12.28%     87.80% |        2255     12.20%    100.00% (Unspecified)
system.caches.L1Cache_Controller.S.Store::total        18489                       (Unspecified)
system.caches.L1Cache_Controller.S.Inv   |        7861     14.41%     14.41% |        6817     12.50%     26.91% |        6768     12.41%     39.32% |        6847     12.55%     51.87% |        6487     11.89%     63.77% |        6682     12.25%     76.02% |        6461     11.85%     87.86% |        6621     12.14%    100.00% (Unspecified)
system.caches.L1Cache_Controller.S.Inv::total        54544                       (Unspecified)
system.caches.L1Cache_Controller.S.L1_Replacement |     2440417     12.61%     12.61% |     2412072     12.47%     25.08% |     2414302     12.48%     37.56% |     2417171     12.49%     50.05% |     2428479     12.55%     62.60% |     2430558     12.56%     75.16% |     2424660     12.53%     87.69% |     2381176     12.31%    100.00% (Unspecified)
system.caches.L1Cache_Controller.S.L1_Replacement::total     19348835                       (Unspecified)
system.caches.L1Cache_Controller.E.Load  |     1961230     12.53%     12.53% |     1917188     12.25%     24.79% |     1909163     12.20%     36.99% |     1934122     12.36%     49.35% |     1906968     12.19%     61.53% |     1918757     12.26%     73.80% |     1927973     12.32%     86.12% |     2172221     13.88%    100.00% (Unspecified)
system.caches.L1Cache_Controller.E.Load::total     15647622                       (Unspecified)
system.caches.L1Cache_Controller.E.Store |        5546     13.01%     13.01% |        5296     12.43%     25.44% |        5278     12.38%     37.83% |        5308     12.46%     50.28% |        5268     12.36%     62.64% |        5265     12.35%     75.00% |        5314     12.47%     87.47% |        5342     12.53%    100.00% (Unspecified)
system.caches.L1Cache_Controller.E.Store::total        42617                       (Unspecified)
system.caches.L1Cache_Controller.E.Inv   |         366      7.80%      7.80% |         153      3.26%     11.06% |         884     18.84%     29.90% |         184      3.92%     33.82% |         249      5.31%     39.12% |         835     17.79%     56.91% |         470     10.01%     66.93% |        1552     33.07%    100.00% (Unspecified)
system.caches.L1Cache_Controller.E.Inv::total         4693                       (Unspecified)
system.caches.L1Cache_Controller.E.L1_Replacement |      712246     12.62%     12.62% |      704583     12.48%     25.10% |      704003     12.47%     37.57% |      705886     12.50%     50.07% |      708904     12.56%     62.63% |      709237     12.56%     75.19% |      707196     12.53%     87.72% |      693398     12.28%    100.00% (Unspecified)
system.caches.L1Cache_Controller.E.L1_Replacement::total      5645453                       (Unspecified)
system.caches.L1Cache_Controller.E.Fwd_GETX |           1      5.00%      5.00% |           5     25.00%     30.00% |           3     15.00%     45.00% |           1      5.00%     50.00% |           1      5.00%     55.00% |           1      5.00%     60.00% |           1      5.00%     65.00% |           7     35.00%    100.00% (Unspecified)
system.caches.L1Cache_Controller.E.Fwd_GETX::total           20                       (Unspecified)
system.caches.L1Cache_Controller.E.Fwd_GETS |        1259     16.62%     16.62% |        1073     14.16%     30.78% |         914     12.06%     42.84% |         768     10.14%     52.98% |         868     11.46%     64.43% |         857     11.31%     75.74% |         897     11.84%     87.58% |         941     12.42%    100.00% (Unspecified)
system.caches.L1Cache_Controller.E.Fwd_GETS::total         7577                       (Unspecified)
system.caches.L1Cache_Controller.M.Load  |       60691     14.73%     14.73% |       50759     12.32%     27.04% |       50967     12.37%     39.41% |       49428     11.99%     51.40% |       50310     12.21%     63.61% |       49100     11.91%     75.52% |       50207     12.18%     87.70% |       50682     12.30%    100.00% (Unspecified)
system.caches.L1Cache_Controller.M.Load::total       412144                       (Unspecified)
system.caches.L1Cache_Controller.M.Store |       91272     14.13%     14.13% |       79240     12.26%     26.39% |       79112     12.25%     38.64% |       79113     12.25%     50.88% |       79165     12.25%     63.14% |       79116     12.25%     75.38% |       79081     12.24%     87.62% |       79970     12.38%    100.00% (Unspecified)
system.caches.L1Cache_Controller.M.Store::total       646069                       (Unspecified)
system.caches.L1Cache_Controller.M.Inv   |          29     11.89%     11.89% |          20      8.20%     20.08% |          26     10.66%     30.74% |          27     11.07%     41.80% |          25     10.25%     52.05% |          16      6.56%     58.61% |          14      5.74%     64.34% |          87     35.66%    100.00% (Unspecified)
system.caches.L1Cache_Controller.M.Inv::total          244                       (Unspecified)
system.caches.L1Cache_Controller.M.L1_Replacement |       17699     22.68%     22.68% |        8611     11.03%     33.71% |        8593     11.01%     44.72% |        8695     11.14%     55.86% |        8592     11.01%     66.87% |        8712     11.16%     78.03% |        8603     11.02%     89.06% |        8542     10.94%    100.00% (Unspecified)
system.caches.L1Cache_Controller.M.L1_Replacement::total        78047                       (Unspecified)
system.caches.L1Cache_Controller.M.Fwd_GETX |           4      5.26%      5.26% |          11     14.47%     19.74% |          11     14.47%     34.21% |          11     14.47%     48.68% |           9     11.84%     60.53% |          11     14.47%     75.00% |          12     15.79%     90.79% |           7      9.21%    100.00% (Unspecified)
system.caches.L1Cache_Controller.M.Fwd_GETX::total           76                       (Unspecified)
system.caches.L1Cache_Controller.M.Fwd_GETS |        2323     14.16%     14.16% |        2027     12.36%     26.52% |        2020     12.32%     38.84% |        1935     11.80%     50.64% |        2068     12.61%     63.25% |        1949     11.88%     75.13% |        2056     12.54%     87.67% |        2023     12.33%    100.00% (Unspecified)
system.caches.L1Cache_Controller.M.Fwd_GETS::total        16401                       (Unspecified)
system.caches.L1Cache_Controller.IS.Inv  |           0      0.00%      0.00% |          26     17.11%     17.11% |          40     26.32%     43.42% |          44     28.95%     72.37% |          28     18.42%     90.79% |          10      6.58%     97.37% |           2      1.32%     98.68% |           2      1.32%    100.00% (Unspecified)
system.caches.L1Cache_Controller.IS.Inv::total          152                       (Unspecified)
system.caches.L1Cache_Controller.IS.L1_Replacement |           0      0.00%      0.00% |           0      0.00%      0.00% |           1     50.00%     50.00% |           0      0.00%     50.00% |           1     50.00%    100.00% |           0      0.00%    100.00% |           0      0.00%    100.00% |           0      0.00%    100.00% (Unspecified)
system.caches.L1Cache_Controller.IS.L1_Replacement::total            2                       (Unspecified)
system.caches.L1Cache_Controller.IS.Data_Exclusive |      721018     12.65%     12.65% |      711110     12.47%     25.12% |      711036     12.47%     37.59% |      712045     12.49%     50.08% |      715330     12.55%     62.62% |      716103     12.56%     75.18% |      713938     12.52%     87.70% |      701228     12.30%    100.00% (Unspecified)
system.caches.L1Cache_Controller.IS.Data_Exclusive::total      5701808                       (Unspecified)
system.caches.L1Cache_Controller.IS.DataS_fromL1 |        3111     12.97%     12.97% |        3353     13.98%     26.96% |        3119     13.01%     39.97% |        3028     12.63%     52.59% |        2630     10.97%     63.56% |        2879     12.01%     75.57% |        2784     11.61%     87.18% |        3074     12.82%    100.00% (Unspecified)
system.caches.L1Cache_Controller.IS.DataS_fromL1::total        23978                       (Unspecified)
system.caches.L1Cache_Controller.IS.Data_all_Acks |     2450775     12.65%     12.65% |     2414674     12.46%     25.10% |     2417329     12.47%     37.58% |     2420634     12.49%     50.07% |     2431632     12.55%     62.61% |     2433939     12.56%     75.17% |     2427579     12.53%     87.70% |     2384000     12.30%    100.00% (Unspecified)
system.caches.L1Cache_Controller.IS.Data_all_Acks::total     19380562                       (Unspecified)
system.caches.L1Cache_Controller.IM.Data |          44     80.00%     80.00% |           2      3.64%     83.64% |           0      0.00%     83.64% |           0      0.00%     83.64% |           3      5.45%     89.09% |           3      5.45%     94.55% |           3      5.45%    100.00% |           0      0.00%    100.00% (Unspecified)
system.caches.L1Cache_Controller.IM.Data::total           55                       (Unspecified)
system.caches.L1Cache_Controller.IM.Data_all_Acks |        3753     14.74%     14.74% |        3115     12.23%     26.97% |        3090     12.13%     39.10% |        3102     12.18%     51.28% |        3128     12.28%     63.56% |        3116     12.24%     75.80% |        3096     12.16%     87.96% |        3067     12.04%    100.00% (Unspecified)
system.caches.L1Cache_Controller.IM.Data_all_Acks::total        25467                       (Unspecified)
system.caches.L1Cache_Controller.SM.Ack  |       17130     13.39%     13.39% |       15695     12.27%     25.66% |       15878     12.41%     38.08% |       15685     12.26%     50.34% |       15977     12.49%     62.83% |       16028     12.53%     75.37% |       15799     12.35%     87.72% |       15707     12.28%    100.00% (Unspecified)
system.caches.L1Cache_Controller.SM.Ack::total       127899                       (Unspecified)
system.caches.L1Cache_Controller.SM.Ack_all |        2615     14.10%     14.10% |        2258     12.18%     26.28% |        2282     12.31%     38.58% |        2256     12.17%     50.75% |        2298     12.39%     63.14% |        2307     12.44%     75.58% |        2273     12.26%     87.84% |        2255     12.16%    100.00% (Unspecified)
system.caches.L1Cache_Controller.SM.Ack_all::total        18544                       (Unspecified)
system.caches.L1Cache_Controller.IS_I.Data_all_Acks |           0      0.00%      0.00% |          26     17.11%     17.11% |          40     26.32%     43.42% |          44     28.95%     72.37% |          28     18.42%     90.79% |          10      6.58%     97.37% |           2      1.32%     98.68% |           2      1.32%    100.00% (Unspecified)
system.caches.L1Cache_Controller.IS_I.Data_all_Acks::total          152                       (Unspecified)
system.caches.L1Cache_Controller.M_I.Store |           0      0.00%      0.00% |           0      0.00%      0.00% |           0      0.00%      0.00% |           0      0.00%      0.00% |           0      0.00%      0.00% |           0      0.00%      0.00% |           0      0.00%      0.00% |           1    100.00%    100.00% (Unspecified)
system.caches.L1Cache_Controller.M_I.Store::total            1                       (Unspecified)
system.caches.L1Cache_Controller.M_I.Inv |           0      0.00%      0.00% |           0      0.00%      0.00% |           0      0.00%      0.00% |           0      0.00%      0.00% |           0      0.00%      0.00% |           0      0.00%      0.00% |           1    100.00%    100.00% |           0      0.00%    100.00% (Unspecified)
system.caches.L1Cache_Controller.M_I.Inv::total            1                       (Unspecified)
system.caches.L1Cache_Controller.M_I.WB_Ack |      729945     12.75%     12.75% |      713194     12.46%     25.21% |      712596     12.45%     37.66% |      714581     12.49%     50.15% |      717496     12.54%     62.69% |      717949     12.54%     75.23% |      715798     12.51%     87.74% |      701940     12.26%    100.00% (Unspecified)
system.caches.L1Cache_Controller.M_I.WB_Ack::total      5723499                       (Unspecified)
system.caches.L1Cache_Controller.SINK_WB_ACK.WB_Ack |           0      0.00%      0.00% |           0      0.00%      0.00% |           0      0.00%      0.00% |           0      0.00%      0.00% |           0      0.00%      0.00% |           0      0.00%      0.00% |           1    100.00%    100.00% |           0      0.00%    100.00% (Unspecified)
system.caches.L1Cache_Controller.SINK_WB_ACK.WB_Ack::total            1                       (Unspecified)
system.caches.Directory_Controller.Fetch |       10005      0.18%      0.18% |     5700622     99.82%    100.00% (Unspecified)
system.caches.Directory_Controller.Fetch::total      5710627                       (Unspecified)
system.caches.Directory_Controller.Data  |         622      0.40%      0.40% |      154346     99.60%    100.00% (Unspecified)
system.caches.Directory_Controller.Data::total       154968                       (Unspecified)
system.caches.Directory_Controller.Memory_Data |       10005      0.18%      0.18% |     5700605     99.82%    100.00% (Unspecified)
system.caches.Directory_Controller.Memory_Data::total      5710610                       (Unspecified)
system.caches.Directory_Controller.Memory_Ack |         622      0.40%      0.40% |      154346     99.60%    100.00% (Unspecified)
system.caches.Directory_Controller.Memory_Ack::total       154968                       (Unspecified)
system.caches.Directory_Controller.CleanReplacement |        9408      0.17%      0.17% |     5546251     99.83%    100.00% (Unspecified)
system.caches.Directory_Controller.CleanReplacement::total      5555659                       (Unspecified)
system.caches.Directory_Controller.I.Fetch |       10005      0.18%      0.18% |     5700622     99.82%    100.00% (Unspecified)
system.caches.Directory_Controller.I.Fetch::total      5710627                       (Unspecified)
system.caches.Directory_Controller.M.Data |         622      0.40%      0.40% |      154346     99.60%    100.00% (Unspecified)
system.caches.Directory_Controller.M.Data::total       154968                       (Unspecified)
system.caches.Directory_Controller.M.CleanReplacement |        9408      0.17%      0.17% |     5546251     99.83%    100.00% (Unspecified)
system.caches.Directory_Controller.M.CleanReplacement::total      5555659                       (Unspecified)
system.caches.Directory_Controller.IM.Memory_Data |       10005      0.18%      0.18% |     5700605     99.82%    100.00% (Unspecified)
system.caches.Directory_Controller.IM.Memory_Data::total      5710610                       (Unspecified)
system.caches.Directory_Controller.MI.Memory_Ack |         622      0.40%      0.40% |      154346     99.60%    100.00% (Unspecified)
system.caches.Directory_Controller.MI.Memory_Ack::total       154968                       (Unspecified)
system.caches.L2Cache_Controller.L1_GET_INSTR |        7327     13.53%     13.53% |        7530     13.91%     27.44% |        6464     11.94%     39.38% |        4977      9.19%     48.57% |        6540     12.08%     60.65% |        7138     13.18%     73.83% |        6768     12.50%     86.33% |        7402     13.67%    100.00% (Unspecified)
system.caches.L2Cache_Controller.L1_GET_INSTR::total        54146                       (Unspecified)
system.caches.L2Cache_Controller.L1_GETS |     3137155     12.52%     12.52% |     3136845     12.52%     25.04% |     3128930     12.49%     37.53% |     3130313     12.49%     50.02% |     3136464     12.52%     62.54% |     3131354     12.50%     75.04% |     3126272     12.48%     87.52% |     3126759     12.48%    100.00% (Unspecified)
system.caches.L2Cache_Controller.L1_GETS::total     25054092                       (Unspecified)
system.caches.L2Cache_Controller.L1_GETX |        3623     14.17%     14.17% |        3128     12.24%     26.41% |        2213      8.66%     35.06% |        2881     11.27%     46.33% |        3109     12.16%     58.49% |        3897     15.24%     73.74% |        3197     12.51%     86.24% |        3517     13.76%    100.00% (Unspecified)
system.caches.L2Cache_Controller.L1_GETX::total        25565                       (Unspecified)
system.caches.L2Cache_Controller.L1_UPGRADE |        2283     12.30%     12.30% |        2287     12.32%     24.62% |        2267     12.21%     36.83% |        2265     12.20%     49.04% |        2313     12.46%     61.50% |        2280     12.28%     73.78% |        2574     13.87%     87.65% |        2293     12.35%    100.00% (Unspecified)
system.caches.L2Cache_Controller.L1_UPGRADE::total        18562                       (Unspecified)
system.caches.L2Cache_Controller.L1_PUTX |      715827     12.51%     12.51% |      715885     12.51%     25.01% |      713712     12.47%     37.48% |      715136     12.49%     49.98% |      715251     12.50%     62.48% |      716650     12.52%     75.00% |      715318     12.50%     87.50% |      715720     12.50%    100.00% (Unspecified)
system.caches.L2Cache_Controller.L1_PUTX::total      5723499                       (Unspecified)
system.caches.L2Cache_Controller.L1_PUTX_old |           0      0.00%      0.00% |           0      0.00%      0.00% |           0      0.00%      0.00% |           0      0.00%      0.00% |           0      0.00%      0.00% |           2    100.00%    100.00% |           0      0.00%    100.00% |           0      0.00%    100.00% (Unspecified)
system.caches.L2Cache_Controller.L1_PUTX_old::total            2                       (Unspecified)
system.caches.L2Cache_Controller.L2_Replacement |       19486     12.59%     12.59% |       19110     12.35%     24.94% |       18663     12.06%     37.00% |       19236     12.43%     49.42% |       19174     12.39%     61.81% |       19969     12.90%     74.72% |       19363     12.51%     87.23% |       19771     12.77%    100.00% (Unspecified)
system.caches.L2Cache_Controller.L2_Replacement::total       154772                       (Unspecified)
system.caches.L2Cache_Controller.L2_Replacement_clean |      694822     12.51%     12.51% |      695099     12.51%     25.02% |      694325     12.50%     37.51% |      694187     12.49%     50.01% |      694454     12.50%     62.51% |      694420     12.50%     75.01% |      694198     12.49%     87.50% |      694350     12.50%    100.00% (Unspecified)
system.caches.L2Cache_Controller.L2_Replacement_clean::total      5555855                       (Unspecified)
system.caches.L2Cache_Controller.Mem_Data |      714306     12.51%     12.51% |      714209     12.51%     25.02% |      712983     12.49%     37.50% |      713419     12.49%     49.99% |      713627     12.50%     62.49% |      714388     12.51%     75.00% |      713559     12.50%     87.49% |      714119     12.51%    100.00% (Unspecified)
system.caches.L2Cache_Controller.Mem_Data::total      5710610                       (Unspecified)
system.caches.L2Cache_Controller.Mem_Ack |      714308     12.51%     12.51% |      714209     12.51%     25.02% |      712988     12.49%     37.50% |      713423     12.49%     49.99% |      713627     12.50%     62.49% |      714389     12.51%     75.00% |      713561     12.50%     87.49% |      714120     12.51%    100.00% (Unspecified)
system.caches.L2Cache_Controller.Mem_Ack::total      5710625                       (Unspecified)
system.caches.L2Cache_Controller.WB_Data |        2142     12.87%     12.87% |        2030     12.20%     25.06% |        2016     12.11%     37.18% |        2034     12.22%     49.40% |        2077     12.48%     61.87% |        2038     12.24%     74.12% |        2277     13.68%     87.80% |        2031     12.20%    100.00% (Unspecified)
system.caches.L2Cache_Controller.WB_Data::total        16645                       (Unspecified)
system.caches.L2Cache_Controller.WB_Data_clean |        1051     13.87%     13.87% |        1016     13.41%     27.28% |         975     12.87%     40.14% |         912     12.03%     52.18% |         870     11.48%     63.66% |         872     11.51%     75.16% |         950     12.54%     87.70% |         932     12.30%    100.00% (Unspecified)
system.caches.L2Cache_Controller.WB_Data_clean::total         7578                       (Unspecified)
system.caches.L2Cache_Controller.Ack     |       11680     15.44%     15.44% |       10419     13.77%     29.21% |        9983     13.19%     42.40% |        7736     10.22%     52.62% |        8651     11.43%     64.06% |        8694     11.49%     75.55% |        8698     11.50%     87.04% |        9803     12.96%    100.00% (Unspecified)
system.caches.L2Cache_Controller.Ack::total        75664                       (Unspecified)
system.caches.L2Cache_Controller.Ack_all |        2664     14.25%     14.25% |        2531     13.54%     27.78% |        2474     13.23%     41.01% |        2064     11.04%     52.05% |        2235     11.95%     64.00% |        2176     11.64%     75.64% |        2156     11.53%     87.17% |        2399     12.83%    100.00% (Unspecified)
system.caches.L2Cache_Controller.Ack_all::total        18699                       (Unspecified)
system.caches.L2Cache_Controller.Unblock |        3147     13.12%     13.12% |        3026     12.62%     25.74% |        2973     12.40%     38.14% |        2915     12.16%     50.30% |        2919     12.17%     62.47% |        2871     11.97%     74.45% |        3202     13.35%     87.80% |        2925     12.20%    100.00% (Unspecified)
system.caches.L2Cache_Controller.Unblock::total        23978                       (Unspecified)
system.caches.L2Cache_Controller.Exclusive_Unblock |      718843     12.51%     12.51% |      718667     12.51%     25.02% |      716458     12.47%     37.49% |      717794     12.49%     49.98% |      717939     12.49%     62.48% |      719363     12.52%     74.99% |      718305     12.50%     87.50% |      718450     12.50%    100.00% (Unspecified)
system.caches.L2Cache_Controller.Exclusive_Unblock::total      5745819                       (Unspecified)
system.caches.L2Cache_Controller.NP.L1_GET_INSTR |        1169     13.54%     13.54% |        1184     13.71%     27.25% |        1081     12.52%     39.76% |         883     10.22%     49.99% |        1071     12.40%     62.39% |        1058     12.25%     74.64% |         996     11.53%     86.17% |        1194     13.83%    100.00% (Unspecified)
system.caches.L2Cache_Controller.NP.L1_GET_INSTR::total         8636                       (Unspecified)
system.caches.L2Cache_Controller.NP.L1_GETS |      710269     12.50%     12.50% |      710394     12.51%     25.01% |      709774     12.49%     37.50% |      710059     12.50%     50.00% |      709932     12.50%     62.50% |      710253     12.50%     75.00% |      709909     12.50%     87.50% |      710107     12.50%    100.00% (Unspecified)
system.caches.L2Cache_Controller.NP.L1_GETS::total      5680697                       (Unspecified)
system.caches.L2Cache_Controller.NP.L1_GETX |        2870     13.48%     13.48% |        2631     12.36%     25.83% |        2133     10.02%     35.85% |        2481     11.65%     47.50% |        2625     12.33%     59.83% |        3078     14.45%     74.28% |        2656     12.47%     86.76% |        2820     13.24%    100.00% (Unspecified)
system.caches.L2Cache_Controller.NP.L1_GETX::total        21294                       (Unspecified)
system.caches.L2Cache_Controller.NP.L1_PUTX_old |           0      0.00%      0.00% |           0      0.00%      0.00% |           0      0.00%      0.00% |           0      0.00%      0.00% |           0      0.00%      0.00% |           1    100.00%    100.00% |           0      0.00%    100.00% |           0      0.00%    100.00% (Unspecified)
system.caches.L2Cache_Controller.NP.L1_PUTX_old::total            1                       (Unspecified)
system.caches.L2Cache_Controller.SS.L1_GET_INSTR |        3993     13.71%     13.71% |        3984     13.68%     27.39% |        3447     11.84%     39.22% |        2487      8.54%     47.76% |        3635     12.48%     60.24% |        3781     12.98%     73.23% |        3598     12.35%     85.58% |        4200     14.42%    100.00% (Unspecified)
system.caches.L2Cache_Controller.SS.L1_GET_INSTR::total        29125                       (Unspecified)
system.caches.L2Cache_Controller.SS.L1_GETS |     2419899     12.52%     12.52% |     2419744     12.52%     25.05% |     2413242     12.49%     37.54% |     2414288     12.49%     50.03% |     2420618     12.53%     62.56% |     2414819     12.50%     75.06% |     2409269     12.47%     87.52% |     2410661     12.48%    100.00% (Unspecified)
system.caches.L2Cache_Controller.SS.L1_GETS::total     19322540                       (Unspecified)
system.caches.L2Cache_Controller.SS.L1_GETX |          26     47.27%     47.27% |           0      0.00%     47.27% |           0      0.00%     47.27% |           0      0.00%     47.27% |           3      5.45%     52.73% |           3      5.45%     58.18% |          20     36.36%     94.55% |           3      5.45%    100.00% (Unspecified)
system.caches.L2Cache_Controller.SS.L1_GETX::total           55                       (Unspecified)
system.caches.L2Cache_Controller.SS.L1_UPGRADE |        2283     12.35%     12.35% |        2287     12.37%     24.72% |        2267     12.26%     36.98% |        2265     12.25%     49.23% |        2313     12.51%     61.74% |        2280     12.33%     74.07% |        2501     13.53%     87.60% |        2293     12.40%    100.00% (Unspecified)
system.caches.L2Cache_Controller.SS.L1_UPGRADE::total        18489                       (Unspecified)
system.caches.L2Cache_Controller.SS.L2_Replacement |          76     38.78%     38.78% |          39     19.90%     58.67% |           5      2.55%     61.22% |           9      4.59%     65.82% |           8      4.08%     69.90% |           5      2.55%     72.45% |          44     22.45%     94.90% |          10      5.10%    100.00% (Unspecified)
system.caches.L2Cache_Controller.SS.L2_Replacement::total          196                       (Unspecified)
system.caches.L2Cache_Controller.SS.L2_Replacement_clean |        1995     14.45%     14.45% |        1907     13.81%     28.25% |        1837     13.30%     41.56% |        1489     10.78%     52.34% |        1639     11.87%     64.21% |        1583     11.46%     75.67% |        1523     11.03%     86.70% |        1837     13.30%    100.00% (Unspecified)
system.caches.L2Cache_Controller.SS.L2_Replacement_clean::total        13810                       (Unspecified)
system.caches.L2Cache_Controller.M.L1_GET_INSTR |           0      0.00%      0.00% |           2     25.00%     25.00% |           1     12.50%     37.50% |           0      0.00%     37.50% |           0      0.00%     37.50% |           1     12.50%     50.00% |           2     25.00%     75.00% |           2     25.00%    100.00% (Unspecified)
system.caches.L2Cache_Controller.M.L1_GET_INSTR::total            8                       (Unspecified)
system.caches.L2Cache_Controller.M.L1_GETS |        2914     13.09%     13.09% |        3038     13.65%     26.75% |        2416     10.86%     37.60% |        2709     12.17%     49.78% |        2709     12.17%     61.95% |        3030     13.62%     75.57% |        2731     12.27%     87.84% |        2706     12.16%    100.00% (Unspecified)
system.caches.L2Cache_Controller.M.L1_GETS::total        22253                       (Unspecified)
system.caches.L2Cache_Controller.M.L1_GETX |         663     16.26%     16.26% |         469     11.50%     27.77% |          77      1.89%     29.65% |         398      9.76%     39.42% |         469     11.50%     50.92% |         801     19.65%     70.57% |         514     12.61%     83.17% |         686     16.83%    100.00% (Unspecified)
system.caches.L2Cache_Controller.M.L1_GETX::total         4077                       (Unspecified)
system.caches.L2Cache_Controller.M.L2_Replacement |       19406     12.56%     12.56% |       19067     12.34%     24.90% |       18656     12.07%     36.97% |       19214     12.43%     49.41% |       19160     12.40%     61.81% |       19953     12.91%     74.72% |       19312     12.50%     87.22% |       19749     12.78%    100.00% (Unspecified)
system.caches.L2Cache_Controller.M.L2_Replacement::total       154517                       (Unspecified)
system.caches.L2Cache_Controller.M.L2_Replacement_clean |      692192     12.50%     12.50% |      692591     12.51%     25.01% |      691840     12.49%     37.50% |      692114     12.50%     50.00% |      692205     12.50%     62.50% |      692221     12.50%     75.01% |      692068     12.50%     87.50% |      691935     12.50%    100.00% (Unspecified)
system.caches.L2Cache_Controller.M.L2_Replacement_clean::total      5537166                       (Unspecified)
system.caches.L2Cache_Controller.MT.L1_GETS |        3147     13.12%     13.12% |        3026     12.62%     25.74% |        2973     12.40%     38.14% |        2915     12.16%     50.30% |        2919     12.17%     62.47% |        2871     11.97%     74.45% |        3202     13.35%     87.80% |        2925     12.20%    100.00% (Unspecified)
system.caches.L2Cache_Controller.MT.L1_GETS::total        23978                       (Unspecified)
system.caches.L2Cache_Controller.MT.L1_GETX |          41     42.71%     42.71% |          16     16.67%     59.38% |           3      3.12%     62.50% |           1      1.04%     63.54% |          10     10.42%     73.96% |          11     11.46%     85.42% |           6      6.25%     91.67% |           8      8.33%    100.00% (Unspecified)
system.caches.L2Cache_Controller.MT.L1_GETX::total           96                       (Unspecified)
system.caches.L2Cache_Controller.MT.L1_PUTX |      715827     12.51%     12.51% |      715885     12.51%     25.01% |      713712     12.47%     37.48% |      715136     12.49%     49.98% |      715251     12.50%     62.48% |      716650     12.52%     75.00% |      715318     12.50%     87.50% |      715720     12.50%    100.00% (Unspecified)
system.caches.L2Cache_Controller.MT.L1_PUTX::total      5723499                       (Unspecified)
system.caches.L2Cache_Controller.MT.L2_Replacement |           4      6.78%      6.78% |           4      6.78%     13.56% |           2      3.39%     16.95% |          13     22.03%     38.98% |           6     10.17%     49.15% |          11     18.64%     67.80% |           7     11.86%     79.66% |          12     20.34%    100.00% (Unspecified)
system.caches.L2Cache_Controller.MT.L2_Replacement::total           59                       (Unspecified)
system.caches.L2Cache_Controller.MT.L2_Replacement_clean |         635     13.01%     13.01% |         601     12.32%     25.33% |         648     13.28%     38.61% |         584     11.97%     50.58% |         610     12.50%     63.09% |         616     12.63%     75.71% |         607     12.44%     88.15% |         578     11.85%    100.00% (Unspecified)
system.caches.L2Cache_Controller.MT.L2_Replacement_clean::total         4879                       (Unspecified)
system.caches.L2Cache_Controller.M_I.L1_GET_INSTR |           0      0.00%      0.00% |           0      0.00%      0.00% |           0      0.00%      0.00% |           0      0.00%      0.00% |           0      0.00%      0.00% |           0      0.00%      0.00% |           0      0.00%      0.00% |           2    100.00%    100.00% (Unspecified)
system.caches.L2Cache_Controller.M_I.L1_GET_INSTR::total            2                       (Unspecified)
system.caches.L2Cache_Controller.M_I.L1_GETS |           2     10.00%     10.00% |           3     15.00%     25.00% |           4     20.00%     45.00% |           2     10.00%     55.00% |           4     20.00%     75.00% |           1      5.00%     80.00% |           4     20.00%    100.00% |           0      0.00%    100.00% (Unspecified)
system.caches.L2Cache_Controller.M_I.L1_GETS::total           20                       (Unspecified)
system.caches.L2Cache_Controller.M_I.L1_GETX |           2     13.33%     13.33% |           6     40.00%     53.33% |           0      0.00%     53.33% |           1      6.67%     60.00% |           2     13.33%     73.33% |           4     26.67%    100.00% |           0      0.00%    100.00% |           0      0.00%    100.00% (Unspecified)
system.caches.L2Cache_Controller.M_I.L1_GETX::total           15                       (Unspecified)
system.caches.L2Cache_Controller.M_I.Mem_Ack |      714308     12.51%     12.51% |      714209     12.51%     25.02% |      712988     12.49%     37.50% |      713423     12.49%     49.99% |      713627     12.50%     62.49% |      714389     12.51%     75.00% |      713561     12.50%     87.49% |      714120     12.51%    100.00% (Unspecified)
system.caches.L2Cache_Controller.M_I.Mem_Ack::total      5710625                       (Unspecified)
system.caches.L2Cache_Controller.MT_I.WB_Data |           3      6.25%      6.25% |           2      4.17%     10.42% |           1      2.08%     12.50% |          11     22.92%     35.42% |           3      6.25%     41.67% |          10     20.83%     62.50% |           7     14.58%     77.08% |          11     22.92%    100.00% (Unspecified)
system.caches.L2Cache_Controller.MT_I.WB_Data::total           48                       (Unspecified)
system.caches.L2Cache_Controller.MT_I.Ack_all |           1      9.09%      9.09% |           2     18.18%     27.27% |           1      9.09%     36.36% |           2     18.18%     54.55% |           3     27.27%     81.82% |           1      9.09%     90.91% |           0      0.00%     90.91% |           1      9.09%    100.00% (Unspecified)
system.caches.L2Cache_Controller.MT_I.Ack_all::total           11                       (Unspecified)
system.caches.L2Cache_Controller.MCT_I.L1_PUTX_old |           0      0.00%      0.00% |           0      0.00%      0.00% |           0      0.00%      0.00% |           0      0.00%      0.00% |           0      0.00%      0.00% |           1    100.00%    100.00% |           0      0.00%    100.00% |           0      0.00%    100.00% (Unspecified)
system.caches.L2Cache_Controller.MCT_I.L1_PUTX_old::total            1                       (Unspecified)
system.caches.L2Cache_Controller.MCT_I.WB_Data |          43     21.94%     21.94% |          18      9.18%     31.12% |          17      8.67%     39.80% |          20     10.20%     50.00% |          25     12.76%     62.76% |          28     14.29%     77.04% |          18      9.18%     86.22% |          27     13.78%    100.00% (Unspecified)
system.caches.L2Cache_Controller.MCT_I.WB_Data::total          196                       (Unspecified)
system.caches.L2Cache_Controller.MCT_I.WB_Data_clean |           0      0.00%      0.00% |           0      0.00%      0.00% |           0      0.00%      0.00% |           0      0.00%      0.00% |           0      0.00%      0.00% |           1    100.00%    100.00% |           0      0.00%    100.00% |           0      0.00%    100.00% (Unspecified)
system.caches.L2Cache_Controller.MCT_I.WB_Data_clean::total            1                       (Unspecified)
system.caches.L2Cache_Controller.MCT_I.Ack_all |         592     12.64%     12.64% |         583     12.45%     25.10% |         631     13.48%     38.57% |         564     12.05%     50.62% |         585     12.49%     63.11% |         587     12.54%     75.65% |         589     12.58%     88.23% |         551     11.77%    100.00% (Unspecified)
system.caches.L2Cache_Controller.MCT_I.Ack_all::total         4682                       (Unspecified)
system.caches.L2Cache_Controller.I_I.L1_GETS |           0      0.00%      0.00% |           1    100.00%    100.00% |           0      0.00%    100.00% |           0      0.00%    100.00% |           0      0.00%    100.00% |           0      0.00%    100.00% |           0      0.00%    100.00% |           0      0.00%    100.00% (Unspecified)
system.caches.L2Cache_Controller.I_I.L1_GETS::total            1                       (Unspecified)
system.caches.L2Cache_Controller.I_I.Ack |       11159     14.99%     14.99% |       10161     13.65%     28.64% |        9954     13.37%     42.01% |        7691     10.33%     52.34% |        8631     11.59%     63.94% |        8665     11.64%     75.58% |        8434     11.33%     86.91% |        9744     13.09%    100.00% (Unspecified)
system.caches.L2Cache_Controller.I_I.Ack::total        74439                       (Unspecified)
system.caches.L2Cache_Controller.I_I.Ack_all |        1995     14.45%     14.45% |        1907     13.81%     28.25% |        1837     13.30%     41.56% |        1489     10.78%     52.34% |        1639     11.87%     64.21% |        1583     11.46%     75.67% |        1523     11.03%     86.70% |        1837     13.30%    100.00% (Unspecified)
system.caches.L2Cache_Controller.I_I.Ack_all::total        13810                       (Unspecified)
system.caches.L2Cache_Controller.S_I.Ack |         521     42.53%     42.53% |         258     21.06%     63.59% |          29      2.37%     65.96% |          45      3.67%     69.63% |          20      1.63%     71.27% |          29      2.37%     73.63% |         264     21.55%     95.18% |          59      4.82%    100.00% (Unspecified)
system.caches.L2Cache_Controller.S_I.Ack::total         1225                       (Unspecified)
system.caches.L2Cache_Controller.S_I.Ack_all |          76     38.78%     38.78% |          39     19.90%     58.67% |           5      2.55%     61.22% |           9      4.59%     65.82% |           8      4.08%     69.90% |           5      2.55%     72.45% |          44     22.45%     94.90% |          10      5.10%    100.00% (Unspecified)
system.caches.L2Cache_Controller.S_I.Ack_all::total          196                       (Unspecified)
system.caches.L2Cache_Controller.ISS.L1_GETS |         221     19.64%     19.64% |         168     14.93%     34.58% |         207     18.40%     52.98% |         115     10.22%     63.20% |         121     10.76%     73.96% |          92      8.18%     82.13% |          30      2.67%     84.80% |         171     15.20%    100.00% (Unspecified)
system.caches.L2Cache_Controller.ISS.L1_GETS::total         1125                       (Unspecified)
system.caches.L2Cache_Controller.ISS.Mem_Data |      710046     12.50%     12.50% |      710226     12.50%     25.01% |      709562     12.49%     37.50% |      709940     12.50%     50.00% |      709810     12.50%     62.50% |      710160     12.50%     75.00% |      709877     12.50%     87.50% |      709934     12.50%    100.00% (Unspecified)
system.caches.L2Cache_Controller.ISS.Mem_Data::total      5679555                       (Unspecified)
system.caches.L2Cache_Controller.IS.L1_GET_INSTR |        2165     13.22%     13.22% |        2360     14.41%     27.63% |        1935     11.82%     39.45% |        1607      9.81%     49.26% |        1834     11.20%     60.46% |        2298     14.03%     74.50% |        2172     13.26%     87.76% |        2004     12.24%    100.00% (Unspecified)
system.caches.L2Cache_Controller.IS.L1_GET_INSTR::total        16375                       (Unspecified)
system.caches.L2Cache_Controller.IS.L1_GETS |         536     30.04%     30.04% |         320     17.94%     47.98% |         238     13.34%     61.32% |         177      9.92%     71.24% |         124      6.95%     78.20% |         268     15.02%     93.22% |          28      1.57%     94.79% |          93      5.21%    100.00% (Unspecified)
system.caches.L2Cache_Controller.IS.L1_GETS::total         1784                       (Unspecified)
system.caches.L2Cache_Controller.IS.Mem_Data |        1390     14.24%     14.24% |        1352     13.85%     28.09% |        1288     13.20%     41.29% |         998     10.22%     51.51% |        1192     12.21%     63.72% |        1150     11.78%     75.50% |        1026     10.51%     86.02% |        1365     13.98%    100.00% (Unspecified)
system.caches.L2Cache_Controller.IS.Mem_Data::total         9761                       (Unspecified)
system.caches.L2Cache_Controller.IM.L1_GETS |           0      0.00%      0.00% |           0      0.00%      0.00% |           0      0.00%      0.00% |           0      0.00%      0.00% |           0      0.00%      0.00% |           0      0.00%      0.00% |           1    100.00%    100.00% |           0      0.00%    100.00% (Unspecified)
system.caches.L2Cache_Controller.IM.L1_GETS::total            1                       (Unspecified)
system.caches.L2Cache_Controller.IM.Mem_Data |        2870     13.48%     13.48% |        2631     12.36%     25.83% |        2133     10.02%     35.85% |        2481     11.65%     47.50% |        2625     12.33%     59.83% |        3078     14.45%     74.28% |        2656     12.47%     86.76% |        2820     13.24%    100.00% (Unspecified)
system.caches.L2Cache_Controller.IM.Mem_Data::total        21294                       (Unspecified)
system.caches.L2Cache_Controller.SS_MB.L1_GETS |           0      0.00%      0.00% |           0      0.00%      0.00% |           0      0.00%      0.00% |           0      0.00%      0.00% |           1      0.16%      0.16% |           0      0.00%      0.16% |         594     95.35%     95.51% |          28      4.49%    100.00% (Unspecified)
system.caches.L2Cache_Controller.SS_MB.L1_GETS::total          623                       (Unspecified)
system.caches.L2Cache_Controller.SS_MB.Exclusive_Unblock |        2309     12.45%     12.45% |        2287     12.33%     24.78% |        2267     12.22%     37.01% |        2265     12.21%     49.22% |        2316     12.49%     61.71% |        2283     12.31%     74.02% |        2521     13.59%     87.62% |        2296     12.38%    100.00% (Unspecified)
system.caches.L2Cache_Controller.SS_MB.Exclusive_Unblock::total        18544                       (Unspecified)
system.caches.L2Cache_Controller.MT_MB.L1_GETS |          30     24.00%     24.00% |          19     15.20%     39.20% |          26     20.80%     60.00% |          24     19.20%     79.20% |           9      7.20%     86.40% |           7      5.60%     92.00% |           0      0.00%     92.00% |          10      8.00%    100.00% (Unspecified)
system.caches.L2Cache_Controller.MT_MB.L1_GETS::total          125                       (Unspecified)
system.caches.L2Cache_Controller.MT_MB.L1_GETX |          21     75.00%     75.00% |           6     21.43%     96.43% |           0      0.00%     96.43% |           0      0.00%     96.43% |           0      0.00%     96.43% |           0      0.00%     96.43% |           1      3.57%    100.00% |           0      0.00%    100.00% (Unspecified)
system.caches.L2Cache_Controller.MT_MB.L1_GETX::total           28                       (Unspecified)
system.caches.L2Cache_Controller.MT_MB.Exclusive_Unblock |      716534     12.51%     12.51% |      716380     12.51%     25.02% |      714191     12.47%     37.49% |      715529     12.49%     49.98% |      715623     12.49%     62.48% |      717080     12.52%     75.00% |      715784     12.50%     87.50% |      716154     12.50%    100.00% (Unspecified)
system.caches.L2Cache_Controller.MT_MB.Exclusive_Unblock::total      5727275                       (Unspecified)
system.caches.L2Cache_Controller.MT_IIB.L1_GETS |         116     13.36%     13.36% |         109     12.56%     25.92% |          43      4.95%     30.88% |          22      2.53%     33.41% |          24      2.76%     36.18% |          11      1.27%     37.44% |         498     57.37%     94.82% |          45      5.18%    100.00% (Unspecified)
system.caches.L2Cache_Controller.MT_IIB.L1_GETS::total          868                       (Unspecified)
system.caches.L2Cache_Controller.MT_IIB.WB_Data |        2095     12.79%     12.79% |        2010     12.27%     25.06% |        1993     12.17%     37.23% |        2002     12.22%     49.46% |        2045     12.49%     61.94% |        1995     12.18%     74.12% |        2248     13.73%     87.85% |        1990     12.15%    100.00% (Unspecified)
system.caches.L2Cache_Controller.MT_IIB.WB_Data::total        16378                       (Unspecified)
system.caches.L2Cache_Controller.MT_IIB.WB_Data_clean |        1047     13.83%     13.83% |        1016     13.42%     27.25% |         975     12.88%     40.12% |         912     12.04%     52.17% |         870     11.49%     63.66% |         871     11.50%     75.16% |         949     12.53%     87.69% |         932     12.31%    100.00% (Unspecified)
system.caches.L2Cache_Controller.MT_IIB.WB_Data_clean::total         7572                       (Unspecified)
system.caches.L2Cache_Controller.MT_IIB.Unblock |           5     17.86%     17.86% |           0      0.00%     17.86% |           5     17.86%     35.71% |           1      3.57%     39.29% |           4     14.29%     53.57% |           5     17.86%     71.43% |           5     17.86%     89.29% |           3     10.71%    100.00% (Unspecified)
system.caches.L2Cache_Controller.MT_IIB.Unblock::total           28                       (Unspecified)
system.caches.L2Cache_Controller.MT_IB.WB_Data |           1      4.35%      4.35% |           0      0.00%      4.35% |           5     21.74%     26.09% |           1      4.35%     30.43% |           4     17.39%     47.83% |           5     21.74%     69.57% |           4     17.39%     86.96% |           3     13.04%    100.00% (Unspecified)
system.caches.L2Cache_Controller.MT_IB.WB_Data::total           23                       (Unspecified)
system.caches.L2Cache_Controller.MT_IB.WB_Data_clean |           4     80.00%     80.00% |           0      0.00%     80.00% |           0      0.00%     80.00% |           0      0.00%     80.00% |           0      0.00%     80.00% |           0      0.00%     80.00% |           1     20.00%    100.00% |           0      0.00%    100.00% (Unspecified)
system.caches.L2Cache_Controller.MT_IB.WB_Data_clean::total            5                       (Unspecified)
system.caches.L2Cache_Controller.MT_SB.L1_GETS |          21     27.27%     27.27% |          23     29.87%     57.14% |           7      9.09%     66.23% |           2      2.60%     68.83% |           3      3.90%     72.73% |           2      2.60%     75.32% |           6      7.79%     83.12% |          13     16.88%    100.00% (Unspecified)
system.caches.L2Cache_Controller.MT_SB.L1_GETS::total           77                       (Unspecified)
system.caches.L2Cache_Controller.MT_SB.L1_UPGRADE |           0      0.00%      0.00% |           0      0.00%      0.00% |           0      0.00%      0.00% |           0      0.00%      0.00% |           0      0.00%      0.00% |           0      0.00%      0.00% |          73    100.00%    100.00% |           0      0.00%    100.00% (Unspecified)
system.caches.L2Cache_Controller.MT_SB.L1_UPGRADE::total           73                       (Unspecified)
system.caches.L2Cache_Controller.MT_SB.Unblock |        3142     13.12%     13.12% |        3026     12.63%     25.75% |        2968     12.39%     38.15% |        2914     12.17%     50.31% |        2915     12.17%     62.48% |        2866     11.97%     74.45% |        3197     13.35%     87.80% |        2922     12.20%    100.00% (Unspecified)
system.caches.L2Cache_Controller.MT_SB.Unblock::total        23950                       (Unspecified)
system.caches.RequestType.LD.latency_hist_seqr::bucket_size         1024                       (Unspecified)
system.caches.RequestType.LD.latency_hist_seqr::max_bucket        10239                       (Unspecified)
system.caches.RequestType.LD.latency_hist_seqr::samples     54141502                       (Unspecified)
system.caches.RequestType.LD.latency_hist_seqr::mean    86.820352                       (Unspecified)
system.caches.RequestType.LD.latency_hist_seqr::gmean     5.959090                       (Unspecified)
system.caches.RequestType.LD.latency_hist_seqr::stdev   254.983958                       (Unspecified)
system.caches.RequestType.LD.latency_hist_seqr |    53476757     98.77%     98.77% |      574671      1.06%     99.83% |       85138      0.16%     99.99% |        4262      0.01%    100.00% |         542      0.00%    100.00% |         111      0.00%    100.00% |          21      0.00%    100.00% |           0      0.00%    100.00% |           0      0.00%    100.00% |           0      0.00%    100.00% (Unspecified)
system.caches.RequestType.LD.latency_hist_seqr::total     54141502                       (Unspecified)
system.caches.RequestType.LD.hit_latency_hist_seqr::bucket_size            1                       (Unspecified)
system.caches.RequestType.LD.hit_latency_hist_seqr::max_bucket            9                       (Unspecified)
system.caches.RequestType.LD.hit_latency_hist_seqr::samples     29089146                       (Unspecified)
system.caches.RequestType.LD.hit_latency_hist_seqr::mean     1.105278                       (Unspecified)
system.caches.RequestType.LD.hit_latency_hist_seqr::gmean     1.071055                       (Unspecified)
system.caches.RequestType.LD.hit_latency_hist_seqr::stdev     0.352741                       (Unspecified)
system.caches.RequestType.LD.hit_latency_hist_seqr |           0      0.00%      0.00% |    26463054     90.97%     90.97% |     2193116      7.54%     98.51% |      429610      1.48%     99.99% |        3366      0.01%    100.00% |           0      0.00%    100.00% |           0      0.00%    100.00% |           0      0.00%    100.00% |           0      0.00%    100.00% |           0      0.00%    100.00% (Unspecified)
system.caches.RequestType.LD.hit_latency_hist_seqr::total     29089146                       (Unspecified)
system.caches.RequestType.LD.miss_latency_hist_seqr::bucket_size         1024                       (Unspecified)
system.caches.RequestType.LD.miss_latency_hist_seqr::max_bucket        10239                       (Unspecified)
system.caches.RequestType.LD.miss_latency_hist_seqr::samples     25052356                       (Unspecified)
system.caches.RequestType.LD.miss_latency_hist_seqr::mean   186.347053                       (Unspecified)
system.caches.RequestType.LD.miss_latency_hist_seqr::gmean    43.717215                       (Unspecified)
system.caches.RequestType.LD.miss_latency_hist_seqr::stdev   349.390072                       (Unspecified)
system.caches.RequestType.LD.miss_latency_hist_seqr |    24387611     97.35%     97.35% |      574671      2.29%     99.64% |       85138      0.34%     99.98% |        4262      0.02%    100.00% |         542      0.00%    100.00% |         111      0.00%    100.00% |          21      0.00%    100.00% |           0      0.00%    100.00% |           0      0.00%    100.00% |           0      0.00%    100.00% (Unspecified)
system.caches.RequestType.LD.miss_latency_hist_seqr::total     25052356                       (Unspecified)
system.caches.RequestType.ST.latency_hist_seqr::bucket_size          512                       (Unspecified)
system.caches.RequestType.ST.latency_hist_seqr::max_bucket         5119                       (Unspecified)
system.caches.RequestType.ST.latency_hist_seqr::samples       713601                       (Unspecified)
system.caches.RequestType.ST.latency_hist_seqr::mean    20.991176                       (Unspecified)
system.caches.RequestType.ST.latency_hist_seqr::gmean     1.294279                       (Unspecified)
system.caches.RequestType.ST.latency_hist_seqr::stdev   134.338344                       (Unspecified)
system.caches.RequestType.ST.latency_hist_seqr |      698688     97.91%     97.91% |       12350      1.73%     99.64% |        1526      0.21%     99.85% |         654      0.09%     99.95% |         314      0.04%     99.99% |          57      0.01%    100.00% |           9      0.00%    100.00% |           3      0.00%    100.00% |           0      0.00%    100.00% |           0      0.00%    100.00% (Unspecified)
system.caches.RequestType.ST.latency_hist_seqr::total       713601                       (Unspecified)
system.caches.RequestType.ST.hit_latency_hist_seqr::bucket_size          512                       (Unspecified)
system.caches.RequestType.ST.hit_latency_hist_seqr::max_bucket         5119                       (Unspecified)
system.caches.RequestType.ST.hit_latency_hist_seqr::samples       674643                       (Unspecified)
system.caches.RequestType.ST.hit_latency_hist_seqr::mean     1.175179                       (Unspecified)
system.caches.RequestType.ST.hit_latency_hist_seqr::gmean     1.002922                       (Unspecified)
system.caches.RequestType.ST.hit_latency_hist_seqr::stdev    16.752836                       (Unspecified)
system.caches.RequestType.ST.hit_latency_hist_seqr |      674563     99.99%     99.99% |          26      0.00%     99.99% |          28      0.00%    100.00% |          13      0.00%    100.00% |           8      0.00%    100.00% |           4      0.00%    100.00% |           1      0.00%    100.00% |           0      0.00%    100.00% |           0      0.00%    100.00% |           0      0.00%    100.00% (Unspecified)
system.caches.RequestType.ST.hit_latency_hist_seqr::total       674643                       (Unspecified)
system.caches.RequestType.ST.miss_latency_hist_seqr::bucket_size          512                       (Unspecified)
system.caches.RequestType.ST.miss_latency_hist_seqr::max_bucket         5119                       (Unspecified)
system.caches.RequestType.ST.miss_latency_hist_seqr::samples        38958                       (Unspecified)
system.caches.RequestType.ST.miss_latency_hist_seqr::mean   364.148519                       (Unspecified)
system.caches.RequestType.ST.miss_latency_hist_seqr::gmean   107.174803                       (Unspecified)
system.caches.RequestType.ST.miss_latency_hist_seqr::stdev   448.501943                       (Unspecified)
system.caches.RequestType.ST.miss_latency_hist_seqr |       24125     61.93%     61.93% |       12324     31.63%     93.56% |        1498      3.85%     97.40% |         641      1.65%     99.05% |         306      0.79%     99.84% |          53      0.14%     99.97% |           8      0.02%     99.99% |           3      0.01%    100.00% |           0      0.00%    100.00% |           0      0.00%    100.00% (Unspecified)
system.caches.RequestType.ST.miss_latency_hist_seqr::total        38958                       (Unspecified)
system.caches.RequestType.IFETCH.latency_hist_seqr::bucket_size          512                       (Unspecified)
system.caches.RequestType.IFETCH.latency_hist_seqr::max_bucket         5119                       (Unspecified)
system.caches.RequestType.IFETCH.latency_hist_seqr::samples       825363                       (Unspecified)
system.caches.RequestType.IFETCH.latency_hist_seqr::mean     9.725390                       (Unspecified)
system.caches.RequestType.IFETCH.latency_hist_seqr::gmean     1.300105                       (Unspecified)
system.caches.RequestType.IFETCH.latency_hist_seqr::stdev    55.238728                       (Unspecified)
system.caches.RequestType.IFETCH.latency_hist_seqr |      824426     99.89%     99.89% |         637      0.08%     99.96% |         156      0.02%     99.98% |         130      0.02%    100.00% |          11      0.00%    100.00% |           3      0.00%    100.00% |           0      0.00%    100.00% |           0      0.00%    100.00% |           0      0.00%    100.00% |           0      0.00%    100.00% (Unspecified)
system.caches.RequestType.IFETCH.latency_hist_seqr::total       825363                       (Unspecified)
system.caches.RequestType.IFETCH.hit_latency_hist_seqr::bucket_size            1                       (Unspecified)
system.caches.RequestType.IFETCH.hit_latency_hist_seqr::max_bucket            9                       (Unspecified)
system.caches.RequestType.IFETCH.hit_latency_hist_seqr::samples       771219                       (Unspecified)
system.caches.RequestType.IFETCH.hit_latency_hist_seqr::mean     1.005782                       (Unspecified)
system.caches.RequestType.IFETCH.hit_latency_hist_seqr::gmean     1.004016                       (Unspecified)
system.caches.RequestType.IFETCH.hit_latency_hist_seqr::stdev     0.075818                       (Unspecified)
system.caches.RequestType.IFETCH.hit_latency_hist_seqr |           0      0.00%      0.00% |      766760     99.42%     99.42% |        4459      0.58%    100.00% |           0      0.00%    100.00% |           0      0.00%    100.00% |           0      0.00%    100.00% |           0      0.00%    100.00% |           0      0.00%    100.00% |           0      0.00%    100.00% |           0      0.00%    100.00% (Unspecified)
system.caches.RequestType.IFETCH.hit_latency_hist_seqr::total       771219                       (Unspecified)
system.caches.RequestType.IFETCH.miss_latency_hist_seqr::bucket_size          512                       (Unspecified)
system.caches.RequestType.IFETCH.miss_latency_hist_seqr::max_bucket         5119                       (Unspecified)
system.caches.RequestType.IFETCH.miss_latency_hist_seqr::samples        54144                       (Unspecified)
system.caches.RequestType.IFETCH.miss_latency_hist_seqr::mean   133.926178                       (Unspecified)
system.caches.RequestType.IFETCH.miss_latency_hist_seqr::gmean    51.603587                       (Unspecified)
system.caches.RequestType.IFETCH.miss_latency_hist_seqr::stdev   173.220719                       (Unspecified)
system.caches.RequestType.IFETCH.miss_latency_hist_seqr |       53207     98.27%     98.27% |         637      1.18%     99.45% |         156      0.29%     99.73% |         130      0.24%     99.97% |          11      0.02%     99.99% |           3      0.01%    100.00% |           0      0.00%    100.00% |           0      0.00%    100.00% |           0      0.00%    100.00% |           0      0.00%    100.00% (Unspecified)
system.caches.RequestType.IFETCH.miss_latency_hist_seqr::total        54144                       (Unspecified)
system.caches.RequestType.RMW_Read.latency_hist_seqr::bucket_size          512                       (Unspecified)
system.caches.RequestType.RMW_Read.latency_hist_seqr::max_bucket         5119                       (Unspecified)
system.caches.RequestType.RMW_Read.latency_hist_seqr::samples        13126                       (Unspecified)
[...]
system.o3Cpu7.iew.predictedTakenIncorrect        15795                       # Number of branches that were predicted taken incorrectly (Count)
system.o3Cpu7.iew.predictedNotTakenIncorrect         1236                       # Number of branches that were predicted not taken incorrectly (Count)
system.o3Cpu7.iew.branchMispredicts             17031                       # Number of branch mispredicts detected at execute (Count)
system.o3Cpu7.iew.instsToCommit              52882843                       # Cumulative count of insts sent to commit (Count)
system.o3Cpu7.iew.writebackCount             52881052                       # Cumulative count of insts written-back (Count)
system.o3Cpu7.iew.producerInst               43276529                       # Number of instructions producing a value (Count)
system.o3Cpu7.iew.consumerInst               62321811                       # Number of instructions consuming a value (Count)
system.o3Cpu7.iew.wbRate                     0.247626                       # Insts written-back per cycle ((Count/Cycle))
system.o3Cpu7.iew.wbFanout                   0.694404                       # Average fanout of values written-back ((Count/Count))
system.o3Cpu7.interrupts.clk_domain.clock         3200                       # Clock period in ticks (Tick)
system.o3Cpu7.lsq0.forwLoads                     4821                       # Number of loads that had data forwarded from stores (Count)
system.o3Cpu7.lsq0.squashedLoads                85551                       # Number of loads squashed (Count)
system.o3Cpu7.lsq0.ignoredResponses                 7                       # Number of memory responses ignored because the instruction is squashed (Count)
system.o3Cpu7.lsq0.memOrderViolation              244                       # Number of memory ordering violations (Count)
system.o3Cpu7.lsq0.squashedStores                2794                       # Number of stores squashed (Count)
system.o3Cpu7.lsq0.rescheduledLoads                52                       # Number of loads that were rescheduled (Count)
system.o3Cpu7.lsq0.blockedByCache              857344                       # Number of times an access to memory failed due to the cache being blocked (Count)
system.o3Cpu7.lsq0.loadToUse::samples        11532866                       # Distribution of cycle latency between the first time a load is issued and its completion (Unspecified)
system.o3Cpu7.lsq0.loadToUse::mean         268.655030                       # Distribution of cycle latency between the first time a load is issued and its completion (Unspecified)
system.o3Cpu7.lsq0.loadToUse::stdev        394.322536                       # Distribution of cycle latency between the first time a load is issued and its completion (Unspecified)
system.o3Cpu7.lsq0.loadToUse::0-9             3352754     29.07%     29.07% # Distribution of cycle latency between the first time a load is issued and its completion (Unspecified)
system.o3Cpu7.lsq0.loadToUse::10-19           1243559     10.78%     39.85% # Distribution of cycle latency between the first time a load is issued and its completion (Unspecified)
system.o3Cpu7.lsq0.loadToUse::20-29            754516      6.54%     46.40% # Distribution of cycle latency between the first time a load is issued and its completion (Unspecified)
system.o3Cpu7.lsq0.loadToUse::30-39            777395      6.74%     53.14% # Distribution of cycle latency between the first time a load is issued and its completion (Unspecified)
system.o3Cpu7.lsq0.loadToUse::40-49            446476      3.87%     57.01% # Distribution of cycle latency between the first time a load is issued and its completion (Unspecified)
system.o3Cpu7.lsq0.loadToUse::50-59             69230      0.60%     57.61% # Distribution of cycle latency between the first time a load is issued and its completion (Unspecified)
system.o3Cpu7.lsq0.loadToUse::60-69             19547      0.17%     57.78% # Distribution of cycle latency between the first time a load is issued and its completion (Unspecified)
system.o3Cpu7.lsq0.loadToUse::70-79             53068      0.46%     58.24% # Distribution of cycle latency between the first time a load is issued and its completion (Unspecified)
system.o3Cpu7.lsq0.loadToUse::80-89             90745      0.79%     59.03% # Distribution of cycle latency between the first time a load is issued and its completion (Unspecified)
system.o3Cpu7.lsq0.loadToUse::90-99             38331      0.33%     59.36% # Distribution of cycle latency between the first time a load is issued and its completion (Unspecified)
system.o3Cpu7.lsq0.loadToUse::100-109           17161      0.15%     59.51% # Distribution of cycle latency between the first time a load is issued and its completion (Unspecified)
system.o3Cpu7.lsq0.loadToUse::110-119           17886      0.16%     59.66% # Distribution of cycle latency between the first time a load is issued and its completion (Unspecified)
system.o3Cpu7.lsq0.loadToUse::120-129           36602      0.32%     59.98% # Distribution of cycle latency between the first time a load is issued and its completion (Unspecified)
system.o3Cpu7.lsq0.loadToUse::130-139           42442      0.37%     60.35% # Distribution of cycle latency between the first time a load is issued and its completion (Unspecified)
system.o3Cpu7.lsq0.loadToUse::140-149           25540      0.22%     60.57% # Distribution of cycle latency between the first time a load is issued and its completion (Unspecified)
system.o3Cpu7.lsq0.loadToUse::150-159           16532      0.14%     60.71% # Distribution of cycle latency between the first time a load is issued and its completion (Unspecified)
system.o3Cpu7.lsq0.loadToUse::160-169           16654      0.14%     60.86% # Distribution of cycle latency between the first time a load is issued and its completion (Unspecified)
system.o3Cpu7.lsq0.loadToUse::170-179           30470      0.26%     61.12% # Distribution of cycle latency between the first time a load is issued and its completion (Unspecified)
system.o3Cpu7.lsq0.loadToUse::180-189           33838      0.29%     61.41% # Distribution of cycle latency between the first time a load is issued and its completion (Unspecified)
system.o3Cpu7.lsq0.loadToUse::190-199           22954      0.20%     61.61% # Distribution of cycle latency between the first time a load is issued and its completion (Unspecified)
system.o3Cpu7.lsq0.loadToUse::200-209           17968      0.16%     61.77% # Distribution of cycle latency between the first time a load is issued and its completion (Unspecified)
system.o3Cpu7.lsq0.loadToUse::210-219           17903      0.16%     61.92% # Distribution of cycle latency between the first time a load is issued and its completion (Unspecified)
system.o3Cpu7.lsq0.loadToUse::220-229           30782      0.27%     62.19% # Distribution of cycle latency between the first time a load is issued and its completion (Unspecified)
system.o3Cpu7.lsq0.loadToUse::230-239           42300      0.37%     62.56% # Distribution of cycle latency between the first time a load is issued and its completion (Unspecified)
system.o3Cpu7.lsq0.loadToUse::240-249           39789      0.35%     62.90% # Distribution of cycle latency between the first time a load is issued and its completion (Unspecified)
system.o3Cpu7.lsq0.loadToUse::250-259           38983      0.34%     63.24% # Distribution of cycle latency between the first time a load is issued and its completion (Unspecified)
system.o3Cpu7.lsq0.loadToUse::260-269           39231      0.34%     63.58% # Distribution of cycle latency between the first time a load is issued and its completion (Unspecified)
system.o3Cpu7.lsq0.loadToUse::270-279           77636      0.67%     64.25% # Distribution of cycle latency between the first time a load is issued and its completion (Unspecified)
system.o3Cpu7.lsq0.loadToUse::280-289          148827      1.29%     65.54% # Distribution of cycle latency between the first time a load is issued and its completion (Unspecified)
system.o3Cpu7.lsq0.loadToUse::290-299           87236      0.76%     66.30% # Distribution of cycle latency between the first time a load is issued and its completion (Unspecified)
system.o3Cpu7.lsq0.loadToUse::overflows       3886511     33.70%    100.00% # Distribution of cycle latency between the first time a load is issued and its completion (Unspecified)
system.o3Cpu7.lsq0.loadToUse::min_value             2                       # Distribution of cycle latency between the first time a load is issued and its completion (Unspecified)
system.o3Cpu7.lsq0.loadToUse::max_value          6700                       # Distribution of cycle latency between the first time a load is issued and its completion (Unspecified)
system.o3Cpu7.lsq0.loadToUse::total          11532866                       # Distribution of cycle latency between the first time a load is issued and its completion (Unspecified)
system.o3Cpu7.mmu.dtb.rdAccesses             11580798                       # TLB accesses on read requests (Count)
system.o3Cpu7.mmu.dtb.wrAccesses                91376                       # TLB accesses on write requests (Count)
system.o3Cpu7.mmu.dtb.rdMisses                   5264                       # TLB misses on read requests (Count)
system.o3Cpu7.mmu.dtb.wrMisses                   1016                       # TLB misses on write requests (Count)
system.o3Cpu7.mmu.dtb.walker.power_state.pwrStateResidencyTicks::UNDEFINED  44740494400                       # Cumulative time (in ticks) in various power states (Tick)
system.o3Cpu7.mmu.itb.rdAccesses                    0                       # TLB accesses on read requests (Count)
system.o3Cpu7.mmu.itb.wrAccesses               103312                       # TLB accesses on write requests (Count)
system.o3Cpu7.mmu.itb.rdMisses                      0                       # TLB misses on read requests (Count)
system.o3Cpu7.mmu.itb.wrMisses                    113                       # TLB misses on write requests (Count)
system.o3Cpu7.mmu.itb.walker.power_state.pwrStateResidencyTicks::UNDEFINED  44740494400                       # Cumulative time (in ticks) in various power states (Tick)
system.o3Cpu7.power_state.numTransitions            4                       # Number of power state transitions (Count)
system.o3Cpu7.power_state.ticksClkGated::samples            2                       # Distribution of time spent in the clock gated state (Tick)
system.o3Cpu7.power_state.ticksClkGated::mean    509781800                       # Distribution of time spent in the clock gated state (Tick)
system.o3Cpu7.power_state.ticksClkGated::stdev 90946094.297226                       # Distribution of time spent in the clock gated state (Tick)
system.o3Cpu7.power_state.ticksClkGated::1000-5e+10            2    100.00%    100.00% # Distribution of time spent in the clock gated state (Tick)
system.o3Cpu7.power_state.ticksClkGated::min_value    445473200                       # Distribution of time spent in the clock gated state (Tick)
system.o3Cpu7.power_state.ticksClkGated::max_value    574090400                       # Distribution of time spent in the clock gated state (Tick)
system.o3Cpu7.power_state.ticksClkGated::total            2                       # Distribution of time spent in the clock gated state (Tick)
system.o3Cpu7.power_state.pwrStateResidencyTicks::ON   9898285200                       # Cumulative time (in ticks) in various power states (Tick)
system.o3Cpu7.power_state.pwrStateResidencyTicks::CLK_GATED   1019563600                       # Cumulative time (in ticks) in various power states (Tick)
system.o3Cpu7.power_state.pwrStateResidencyTicks::OFF  33822645600                       # Cumulative time (in ticks) in various power states (Tick)
system.o3Cpu7.rename.squashCycles               17276                       # Number of cycles rename is squashing (Cycle)
system.o3Cpu7.rename.idleCycles               1939746                       # Number of cycles rename is idle (Cycle)
system.o3Cpu7.rename.blockCycles             51784815                       # Number of cycles rename is blocking (Cycle)
system.o3Cpu7.rename.serializeStallCycles       426583                       # count of cycles rename stalled for serializing inst (Cycle)
system.o3Cpu7.rename.runCycles                5947816                       # Number of cycles rename is running (Cycle)
system.o3Cpu7.rename.unblockCycles          152614277                       # Number of cycles rename is unblocking (Cycle)
system.o3Cpu7.rename.renamedInsts            53198955                       # Number of instructions processed by rename (Count)
system.o3Cpu7.rename.ROBFullEvents            1061397                       # Number of times rename has blocked due to ROB full (Count)
system.o3Cpu7.rename.IQFullEvents             4712014                       # Number of times rename has blocked due to IQ full (Count)
system.o3Cpu7.rename.LQFullEvents           149979293                       # Number of times rename has blocked due to LQ full (Count)
system.o3Cpu7.rename.SQFullEvents              138945                       # Number of times rename has blocked due to SQ full (Count)
system.o3Cpu7.rename.renamedOperands         91161298                       # Number of destination operands rename has renamed (Count)
system.o3Cpu7.rename.lookups                161638859                       # Number of register rename lookups that rename has made (Count)
system.o3Cpu7.rename.intLookups              53009230                       # Number of integer rename lookups (Count)
system.o3Cpu7.rename.fpLookups               22916248                       # Number of floating rename lookups (Count)
system.o3Cpu7.rename.committedMaps           90413376                       # Number of HB maps that are committed (Count)
system.o3Cpu7.rename.undoneMaps                747681                       # Number of HB maps that are undone due to squashing (Count)
system.o3Cpu7.rename.serializing                 2125                       # count of serializing insts renamed (Count)
system.o3Cpu7.rename.tempSerializing             2187                       # count of temporary serializing insts renamed (Count)
system.o3Cpu7.rename.skidInsts               11720123                       # count of insts added to the skid buffer (Count)
system.o3Cpu7.rob.reads                     260746632                       # The number of ROB reads (Count)
system.o3Cpu7.rob.writes                    106223208                       # The number of ROB writes (Count)
system.o3Cpu7.thread_0.numInsts              28626661                       # Number of Instructions committed (Count)
system.o3Cpu7.thread_0.numOps                52739950                       # Number of Ops committed (Count)
system.o3Cpu7.thread_0.numMemRefs                   0                       # Number of Memory References (Count)
system.pc.bad_addr.power_state.pwrStateResidencyTicks::UNDEFINED  44740494400                       # Cumulative time (in ticks) in various power states (Tick)
system.pc.com_1.power_state.pwrStateResidencyTicks::UNDEFINED  44740494400                       # Cumulative time (in ticks) in various power states (Tick)
system.pc.default_bus.power_state.pwrStateResidencyTicks::UNDEFINED  44740494400                       # Cumulative time (in ticks) in various power states (Tick)
system.pc.empty_isa.power_state.pwrStateResidencyTicks::UNDEFINED  44740494400                       # Cumulative time (in ticks) in various power states (Tick)
system.pc.fake_com_2.power_state.pwrStateResidencyTicks::UNDEFINED  44740494400                       # Cumulative time (in ticks) in various power states (Tick)
system.pc.fake_com_3.power_state.pwrStateResidencyTicks::UNDEFINED  44740494400                       # Cumulative time (in ticks) in various power states (Tick)
system.pc.fake_com_4.power_state.pwrStateResidencyTicks::UNDEFINED  44740494400                       # Cumulative time (in ticks) in various power states (Tick)
system.pc.fake_floppy.power_state.pwrStateResidencyTicks::UNDEFINED  44740494400                       # Cumulative time (in ticks) in various power states (Tick)
system.pc.pci_host.power_state.pwrStateResidencyTicks::UNDEFINED  44740494400                       # Cumulative time (in ticks) in various power states (Tick)
system.pc.south_bridge.cmos.power_state.pwrStateResidencyTicks::UNDEFINED  44740494400                       # Cumulative time (in ticks) in various power states (Tick)
system.pc.south_bridge.dma1.power_state.pwrStateResidencyTicks::UNDEFINED  44740494400                       # Cumulative time (in ticks) in various power states (Tick)
system.pc.south_bridge.ide.disks0.IdeDisk.dmaReadFullPages            0                       # Number of full page size DMA reads (not PRD). (Count)
system.pc.south_bridge.ide.disks0.IdeDisk.dmaReadBytes            0                       # Number of bytes transfered via DMA reads (not PRD). (Byte)
system.pc.south_bridge.ide.disks0.IdeDisk.dmaReadTxs            0                       # Number of DMA read transactions (not PRD). (Count)
system.pc.south_bridge.ide.disks0.IdeDisk.dmaWriteFullPages            0                       # Number of full page size DMA writes. (Count)
system.pc.south_bridge.ide.disks0.IdeDisk.dmaWriteBytes            0                       # Number of bytes transfered via DMA writes. (Byte)
system.pc.south_bridge.ide.disks0.IdeDisk.dmaWriteTxs            0                       # Number of DMA write transactions. (Count)
system.pc.south_bridge.ide.disks1.IdeDisk.dmaReadFullPages            0                       # Number of full page size DMA reads (not PRD). (Count)
system.pc.south_bridge.ide.disks1.IdeDisk.dmaReadBytes            0                       # Number of bytes transfered via DMA reads (not PRD). (Byte)
system.pc.south_bridge.ide.disks1.IdeDisk.dmaReadTxs            0                       # Number of DMA read transactions (not PRD). (Count)
system.pc.south_bridge.ide.disks1.IdeDisk.dmaWriteFullPages            0                       # Number of full page size DMA writes. (Count)
system.pc.south_bridge.ide.disks1.IdeDisk.dmaWriteBytes            0                       # Number of bytes transfered via DMA writes. (Byte)
system.pc.south_bridge.ide.disks1.IdeDisk.dmaWriteTxs            0                       # Number of DMA write transactions. (Count)
system.pc.south_bridge.ide.power_state.pwrStateResidencyTicks::UNDEFINED  44740494400                       # Cumulative time (in ticks) in various power states (Tick)
system.pc.south_bridge.io_apic.power_state.pwrStateResidencyTicks::UNDEFINED  44740494400                       # Cumulative time (in ticks) in various power states (Tick)
system.pc.south_bridge.keyboard.power_state.pwrStateResidencyTicks::UNDEFINED  44740494400                       # Cumulative time (in ticks) in various power states (Tick)
system.pc.south_bridge.pic1.power_state.pwrStateResidencyTicks::UNDEFINED  44740494400                       # Cumulative time (in ticks) in various power states (Tick)
system.pc.south_bridge.pic2.power_state.pwrStateResidencyTicks::UNDEFINED  44740494400                       # Cumulative time (in ticks) in various power states (Tick)
system.pc.south_bridge.pit.power_state.pwrStateResidencyTicks::UNDEFINED  44740494400                       # Cumulative time (in ticks) in various power states (Tick)
system.pc.south_bridge.speaker.power_state.pwrStateResidencyTicks::UNDEFINED  44740494400                       # Cumulative time (in ticks) in various power states (Tick)
system.workload.inst.arm                            0                       # number of arm instructions executed (Count)
system.workload.inst.quiesce                        0                       # number of quiesce instructions executed (Count)

---------- End Simulation Statistics   ----------
