
---------- Begin Simulation Statistics ----------
simSeconds                                   0.027977                       # Number of seconds simulated (Second)
simTicks                                  27976685000                       # Number of ticks simulated (Tick)
finalTick                                217931378792400                       # Number of ticks from beginning of simulation (restored from checkpoints and never reset) (Tick)
simFreq                                  1000000000000                       # The number of ticks per simulated second ((Tick/Second))
hostSeconds                                  12822.04                       # Real time elapsed on the host (Second)
hostTickRate                                  2181921                       # The number of ticks simulated per host second (ticks/s) ((Tick/Second))
hostMemory                                   19936116                       # Number of bytes of host memory used (Byte)
simInsts                                    129656620                       # Number of instructions simulated (Count)
simOps                                      223931389                       # Number of ops (including micro ops) simulated (Count)
hostInstRate                                    10112                       # Simulator instruction rate (inst/s) ((Count/Second))
hostOpRate                                      17465                       # Simulator op (including micro ops) rate (op/s) ((Count/Second))
system.caches.delayHistogram::bucket_size           16                       # delay histogram for all message (Unspecified)
system.caches.delayHistogram::max_bucket          159                       # delay histogram for all message (Unspecified)
system.caches.delayHistogram::samples        33397289                       # delay histogram for all message (Unspecified)
system.caches.delayHistogram::mean           1.647422                       # delay histogram for all message (Unspecified)
system.caches.delayHistogram::stdev          5.898832                       # delay histogram for all message (Unspecified)
system.caches.delayHistogram             |    32453376     97.17%     97.17% |      638786      1.91%     99.09% |      181673      0.54%     99.63% |       79489      0.24%     99.87% |       32789      0.10%     99.97% |        9482      0.03%     99.99% |        1600      0.00%    100.00% |          94      0.00%    100.00% |           0      0.00%    100.00% |           0      0.00%    100.00% # delay histogram for all message (Unspecified)
system.caches.delayHistogram::total          33397289                       # delay histogram for all message (Unspecified)
system.caches.m_outstandReqHistSeqr::bucket_size            2                       (Unspecified)
system.caches.m_outstandReqHistSeqr::max_bucket           19                       (Unspecified)
system.caches.m_outstandReqHistSeqr::samples    126140294                       (Unspecified)
system.caches.m_outstandReqHistSeqr::mean     2.480063                       (Unspecified)
system.caches.m_outstandReqHistSeqr::gmean     1.844453                       (Unspecified)
system.caches.m_outstandReqHistSeqr::stdev     2.441071                       (Unspecified)
system.caches.m_outstandReqHistSeqr      |    60056944     47.61%     47.61% |    42882801     34.00%     81.61% |    12190237      9.66%     91.27% |     4457635      3.53%     94.81% |     2550144      2.02%     96.83% |     1679649      1.33%     98.16% |     1157198      0.92%     99.08% |      806599      0.64%     99.72% |      359087      0.28%    100.00% |           0      0.00%    100.00% (Unspecified)
system.caches.m_outstandReqHistSeqr::total    126140294                       (Unspecified)
system.caches.m_latencyHistSeqr::bucket_size          512                       (Unspecified)
system.caches.m_latencyHistSeqr::max_bucket         5119                       (Unspecified)
system.caches.m_latencyHistSeqr::samples    126142722                       (Unspecified)
system.caches.m_latencyHistSeqr::mean       11.397184                       (Unspecified)
system.caches.m_latencyHistSeqr::gmean       1.251147                       (Unspecified)
system.caches.m_latencyHistSeqr::stdev      78.218610                       (Unspecified)
system.caches.m_latencyHistSeqr          |   125380540     99.40%     99.40% |      717561      0.57%     99.96% |        3117      0.00%     99.97% |       12155      0.01%     99.98% |       25265      0.02%    100.00% |        4069      0.00%    100.00% |          15      0.00%    100.00% |           0      0.00%    100.00% |           0      0.00%    100.00% |           0      0.00%    100.00% (Unspecified)
system.caches.m_latencyHistSeqr::total      126142722                       (Unspecified)
system.caches.m_hitLatencyHistSeqr::bucket_size          256                       (Unspecified)
system.caches.m_hitLatencyHistSeqr::max_bucket         2559                       (Unspecified)
system.caches.m_hitLatencyHistSeqr::samples    119237330                       (Unspecified)
system.caches.m_hitLatencyHistSeqr::mean     1.005988                       (Unspecified)
system.caches.m_hitLatencyHistSeqr::gmean     1.003817                       (Unspecified)
system.caches.m_hitLatencyHistSeqr::stdev     0.451865                       (Unspecified)
system.caches.m_hitLatencyHistSeqr       |   119237249    100.00%    100.00% |          53      0.00%    100.00% |          21      0.00%    100.00% |           6      0.00%    100.00% |           0      0.00%    100.00% |           0      0.00%    100.00% |           0      0.00%    100.00% |           1      0.00%    100.00% |           0      0.00%    100.00% |           0      0.00%    100.00% (Unspecified)
system.caches.m_hitLatencyHistSeqr::total    119237330                       (Unspecified)
system.caches.m_missLatencyHistSeqr::bucket_size          512                       (Unspecified)
system.caches.m_missLatencyHistSeqr::max_bucket         5119                       (Unspecified)
system.caches.m_missLatencyHistSeqr::samples      6905392                       (Unspecified)
system.caches.m_missLatencyHistSeqr::mean   190.824867                       (Unspecified)
system.caches.m_missLatencyHistSeqr::gmean    56.103339                       (Unspecified)
system.caches.m_missLatencyHistSeqr::stdev   278.746648                       (Unspecified)
system.caches.m_missLatencyHistSeqr      |     6143238     88.96%     88.96% |      717534     10.39%     99.35% |        3117      0.05%     99.40% |       12154      0.18%     99.57% |       25265      0.37%     99.94% |        4069      0.06%    100.00% |          15      0.00%    100.00% |           0      0.00%    100.00% |           0      0.00%    100.00% |           0      0.00%    100.00% (Unspecified)
system.caches.m_missLatencyHistSeqr::total      6905392                       (Unspecified)
system.caches.delayVCHist.vnet_0::bucket_size            8                       # delay histogram for vnet_0 (Unspecified)
system.caches.delayVCHist.vnet_0::max_bucket           79                       # delay histogram for vnet_0 (Unspecified)
system.caches.delayVCHist.vnet_0::samples     14489642                       # delay histogram for vnet_0 (Unspecified)
system.caches.delayVCHist.vnet_0::mean       1.139420                       # delay histogram for vnet_0 (Unspecified)
system.caches.delayVCHist.vnet_0::stdev      2.995276                       # delay histogram for vnet_0 (Unspecified)
system.caches.delayVCHist.vnet_0         |    12738625     87.92%     87.92% |     1672782     11.54%     99.46% |       72583      0.50%     99.96% |        4997      0.03%    100.00% |         523      0.00%    100.00% |          82      0.00%    100.00% |          32      0.00%    100.00% |           9      0.00%    100.00% |           8      0.00%    100.00% |           1      0.00%    100.00% # delay histogram for vnet_0 (Unspecified)
system.caches.delayVCHist.vnet_0::total      14489642                       # delay histogram for vnet_0 (Unspecified)
system.caches.delayVCHist.vnet_1::bucket_size           16                       # delay histogram for vnet_1 (Unspecified)
system.caches.delayVCHist.vnet_1::max_bucket          159                       # delay histogram for vnet_1 (Unspecified)
system.caches.delayVCHist.vnet_1::samples     16906354                       # delay histogram for vnet_1 (Unspecified)
system.caches.delayVCHist.vnet_1::mean       2.277740                       # delay histogram for vnet_1 (Unspecified)
system.caches.delayVCHist.vnet_1::stdev      7.752973                       # delay histogram for vnet_1 (Unspecified)
system.caches.delayVCHist.vnet_1         |    16040676     94.88%     94.88% |      561206      3.32%     98.20% |      181068      1.07%     99.27% |       79448      0.47%     99.74% |       32780      0.19%     99.93% |        9482      0.06%     99.99% |        1600      0.01%    100.00% |          94      0.00%    100.00% |           0      0.00%    100.00% |           0      0.00%    100.00% # delay histogram for vnet_1 (Unspecified)
system.caches.delayVCHist.vnet_1::total      16906354                       # delay histogram for vnet_1 (Unspecified)
system.caches.delayVCHist.vnet_2::bucket_size            1                       # delay histogram for vnet_2 (Unspecified)
system.caches.delayVCHist.vnet_2::max_bucket            9                       # delay histogram for vnet_2 (Unspecified)
system.caches.delayVCHist.vnet_2::samples      2001293                       # delay histogram for vnet_2 (Unspecified)
system.caches.delayVCHist.vnet_2::mean       0.000684                       # delay histogram for vnet_2 (Unspecified)
system.caches.delayVCHist.vnet_2::stdev      0.036968                       # delay histogram for vnet_2 (Unspecified)
system.caches.delayVCHist.vnet_2         |     2000609     99.97%     99.97% |           0      0.00%     99.97% |         684      0.03%    100.00% |           0      0.00%    100.00% |           0      0.00%    100.00% |           0      0.00%    100.00% |           0      0.00%    100.00% |           0      0.00%    100.00% |           0      0.00%    100.00% |           0      0.00%    100.00% # delay histogram for vnet_2 (Unspecified)
system.caches.delayVCHist.vnet_2::total       2001293                       # delay histogram for vnet_2 (Unspecified)
system.caches.L1Cache_Controller.Load    |     9040330     12.58%     12.58% |     8994938     12.51%     25.09% |     8911007     12.40%     37.48% |     8986905     12.50%     49.99% |     9056758     12.60%     62.58% |     8952137     12.45%     75.04% |     8944521     12.44%     87.48% |     9000931     12.52%    100.00% (Unspecified)
system.caches.L1Cache_Controller.Load::total     71887527                       (Unspecified)
system.caches.L1Cache_Controller.Ifetch  |     5552463     12.48%     12.48% |     5516399     12.40%     24.89% |     5577047     12.54%     37.42% |     5568755     12.52%     49.94% |     5573789     12.53%     62.48% |     5589633     12.57%     75.04% |     5560888     12.50%     87.54% |     5540148     12.46%    100.00% (Unspecified)
system.caches.L1Cache_Controller.Ifetch::total     44479122                       (Unspecified)
system.caches.L1Cache_Controller.Store   |     1228907     12.57%     12.57% |     1218934     12.47%     25.04% |     1218591     12.47%     37.50% |     1222478     12.50%     50.01% |     1222671     12.51%     62.52% |     1222839     12.51%     75.02% |     1220030     12.48%     87.50% |     1221634     12.50%    100.00% (Unspecified)
system.caches.L1Cache_Controller.Store::total      9776084                       (Unspecified)
system.caches.L1Cache_Controller.Inv     |      177737     12.73%     12.73% |      174259     12.48%     25.21% |      173855     12.45%     37.66% |      174217     12.48%     50.13% |      174047     12.46%     62.60% |      173936     12.46%     75.05% |      174269     12.48%     87.53% |      174091     12.47%    100.00% (Unspecified)
system.caches.L1Cache_Controller.Inv::total      1396411                       (Unspecified)
system.caches.L1Cache_Controller.L1_Replacement |      825695     12.66%     12.66% |      813307     12.47%     25.12% |      811370     12.44%     37.56% |      815664     12.50%     50.07% |      814591     12.49%     62.55% |      814691     12.49%     75.04% |      812752     12.46%     87.50% |      815438     12.50%    100.00% (Unspecified)
system.caches.L1Cache_Controller.L1_Replacement::total      6523508                       (Unspecified)
system.caches.L1Cache_Controller.Fwd_GETX |          34     14.47%     14.47% |          32     13.62%     28.09% |          30     12.77%     40.85% |          29     12.34%     53.19% |          32     13.62%     66.81% |          26     11.06%     77.87% |          25     10.64%     88.51% |          27     11.49%    100.00% (Unspecified)
system.caches.L1Cache_Controller.Fwd_GETX::total          235                       (Unspecified)
system.caches.L1Cache_Controller.Fwd_GETS |       76374     12.63%     12.63% |       75544     12.49%     25.13% |       75428     12.47%     37.60% |       75475     12.48%     50.08% |       75104     12.42%     62.50% |       75328     12.46%     74.96% |       75981     12.57%     87.53% |       75413     12.47%    100.00% (Unspecified)
system.caches.L1Cache_Controller.Fwd_GETS::total       604647                       (Unspecified)
system.caches.L1Cache_Controller.Data    |          72    100.00%    100.00% |           0      0.00%    100.00% |           0      0.00%    100.00% |           0      0.00%    100.00% |           0      0.00%    100.00% |           0      0.00%    100.00% |           0      0.00%    100.00% |           0      0.00%    100.00% (Unspecified)
system.caches.L1Cache_Controller.Data::total           72                       (Unspecified)
system.caches.L1Cache_Controller.Data_Exclusive |      441497     12.52%     12.52% |      440010     12.48%     24.99% |      439139     12.45%     37.45% |      440913     12.50%     49.95% |      440846     12.50%     62.45% |      441552     12.52%     74.97% |      441198     12.51%     87.48% |      441691     12.52%    100.00% (Unspecified)
system.caches.L1Cache_Controller.Data_Exclusive::total      3526846                       (Unspecified)
system.caches.L1Cache_Controller.DataS_fromL1 |       75917     12.56%     12.56% |       75448     12.48%     25.03% |       75453     12.48%     37.51% |       76110     12.59%     50.10% |       75102     12.42%     62.52% |       75636     12.51%     75.03% |       75240     12.44%     87.47% |       75741     12.53%    100.00% (Unspecified)
system.caches.L1Cache_Controller.DataS_fromL1::total       604647                       (Unspecified)
system.caches.L1Cache_Controller.Data_all_Acks |      313425     12.60%     12.60% |      310849     12.49%     25.09% |      309816     12.45%     37.54% |      311692     12.53%     50.06% |      311658     12.52%     62.59% |      310577     12.48%     75.07% |      309351     12.43%     87.50% |      311097     12.50%    100.00% (Unspecified)
system.caches.L1Cache_Controller.Data_all_Acks::total      2488465                       (Unspecified)
system.caches.L1Cache_Controller.Ack     |       40023     12.75%     12.75% |       39288     12.51%     25.26% |       39151     12.47%     37.73% |       39493     12.58%     50.30% |       38445     12.24%     62.55% |       39184     12.48%     75.02% |       39185     12.48%     87.50% |       39243     12.50%    100.00% (Unspecified)
system.caches.L1Cache_Controller.Ack::total       314012                       (Unspecified)
system.caches.L1Cache_Controller.Ack_all |       35943     12.59%     12.59% |       35642     12.49%     25.08% |       35637     12.49%     37.56% |       36099     12.65%     50.21% |       35132     12.31%     62.52% |       35848     12.56%     75.08% |       35466     12.43%     87.50% |       35667     12.50%    100.00% (Unspecified)
system.caches.L1Cache_Controller.Ack_all::total       285434                       (Unspecified)
system.caches.L1Cache_Controller.WB_Ack  |      405101     12.83%     12.83% |      392235     12.42%     25.25% |      391562     12.40%     37.65% |      393866     12.47%     50.13% |      393960     12.48%     62.61% |      394127     12.48%     75.09% |      392544     12.43%     87.52% |      394042     12.48%    100.00% (Unspecified)
system.caches.L1Cache_Controller.WB_Ack::total      3157437                       (Unspecified)
system.caches.L1Cache_Controller.NP.Load |      823945     12.54%     12.54% |      820500     12.49%     25.03% |      818470     12.46%     37.48% |      822764     12.52%     50.00% |      820782     12.49%     62.50% |      821824     12.51%     75.00% |      819880     12.48%     87.48% |      822556     12.52%    100.00% (Unspecified)
system.caches.L1Cache_Controller.NP.Load::total      6570721                       (Unspecified)
system.caches.L1Cache_Controller.NP.Ifetch |         477     21.93%     21.93% |         164      7.54%     29.47% |         273     12.55%     42.02% |         269     12.37%     54.39% |         189      8.69%     63.08% |         281     12.92%     76.00% |         264     12.14%     88.14% |         258     11.86%    100.00% (Unspecified)
system.caches.L1Cache_Controller.NP.Ifetch::total         2175                       (Unspecified)
system.caches.L1Cache_Controller.NP.Store |        1465     14.90%     14.90% |        1063     10.81%     25.70% |        1049     10.67%     36.37% |        1061     10.79%     47.16% |        2061     20.96%     68.11% |        1031     10.48%     78.60% |        1045     10.63%     89.22% |        1060     10.78%    100.00% (Unspecified)
system.caches.L1Cache_Controller.NP.Store::total         9835                       (Unspecified)
system.caches.L1Cache_Controller.NP.Inv  |      129846     12.77%     12.77% |      126684     12.46%     25.23% |      126449     12.43%     37.66% |      126923     12.48%     50.14% |      126707     12.46%     62.60% |      126667     12.46%     75.06% |      126769     12.47%     87.52% |      126893     12.48%    100.00% (Unspecified)
system.caches.L1Cache_Controller.NP.Inv::total      1016938                       (Unspecified)
system.caches.L1Cache_Controller.I.Load  |        2729     12.72%     12.72% |        2684     12.51%     25.22% |        2683     12.50%     37.72% |        2686     12.52%     50.24% |        2613     12.18%     62.41% |        2686     12.52%     74.93% |        2660     12.39%     87.32% |        2721     12.68%    100.00% (Unspecified)
system.caches.L1Cache_Controller.I.Load::total        21462                       (Unspecified)
system.caches.L1Cache_Controller.I.Ifetch |        2278     14.48%     14.48% |        1893     12.03%     26.51% |        1925     12.24%     38.75% |        1919     12.20%     50.95% |        1948     12.38%     63.33% |        1923     12.22%     75.55% |        1929     12.26%     87.81% |        1917     12.19%    100.00% (Unspecified)
system.caches.L1Cache_Controller.I.Ifetch::total        15732                       (Unspecified)
system.caches.L1Cache_Controller.I.Store |          15     17.24%     17.24% |           6      6.90%     24.14% |           4      4.60%     28.74% |          11     12.64%     41.38% |          13     14.94%     56.32% |          15     17.24%     73.56% |          12     13.79%     87.36% |          11     12.64%    100.00% (Unspecified)
system.caches.L1Cache_Controller.I.Store::total           87                       (Unspecified)
system.caches.L1Cache_Controller.I.L1_Replacement |       42347     12.53%     12.53% |       42454     12.56%     25.09% |       42292     12.51%     37.60% |       42152     12.47%     50.08% |       42238     12.50%     62.57% |       42089     12.45%     75.03% |       42391     12.54%     87.57% |       42018     12.43%    100.00% (Unspecified)
system.caches.L1Cache_Controller.I.L1_Replacement::total       337981                       (Unspecified)
system.caches.L1Cache_Controller.S.Load  |     5097100     12.61%     12.61% |     5074898     12.55%     25.16% |     5011172     12.40%     37.56% |     5062253     12.52%     50.08% |     5044241     12.48%     62.56% |     5032842     12.45%     75.01% |     5027835     12.44%     87.45% |     5073073     12.55%    100.00% (Unspecified)
system.caches.L1Cache_Controller.S.Load::total     40423414                       (Unspecified)
system.caches.L1Cache_Controller.S.Ifetch |     5549708     12.48%     12.48% |     5514342     12.40%     24.88% |     5574849     12.54%     37.42% |     5566567     12.52%     49.94% |     5571652     12.53%     62.47% |     5587429     12.57%     75.04% |     5558695     12.50%     87.54% |     5537973     12.46%    100.00% (Unspecified)
system.caches.L1Cache_Controller.S.Ifetch::total     44461215                       (Unspecified)
system.caches.L1Cache_Controller.S.Store |       35873     12.57%     12.57% |       35643     12.49%     25.06% |       35642     12.49%     37.55% |       36104     12.65%     50.20% |       35133     12.31%     62.51% |       35853     12.56%     75.07% |       35467     12.43%     87.50% |       35674     12.50%    100.00% (Unspecified)
system.caches.L1Cache_Controller.S.Store::total       285389                       (Unspecified)
system.caches.L1Cache_Controller.S.Inv   |       42132     12.67%     12.67% |       41730     12.55%     25.21% |       41636     12.52%     37.73% |       41544     12.49%     50.22% |       41372     12.44%     62.66% |       41370     12.44%     75.10% |       41445     12.46%     87.56% |       41372     12.44%    100.00% (Unspecified)
system.caches.L1Cache_Controller.S.Inv::total       332601                       (Unspecified)
system.caches.L1Cache_Controller.S.L1_Replacement |      378247     12.49%     12.49% |      378618     12.50%     24.99% |      377516     12.47%     37.46% |      379646     12.54%     50.00% |      378393     12.50%     62.50% |      378475     12.50%     74.99% |      377817     12.48%     87.47% |      379377     12.53%    100.00% (Unspecified)
system.caches.L1Cache_Controller.S.L1_Replacement::total      3028089                       (Unspecified)
system.caches.L1Cache_Controller.E.Load  |     1722149     12.50%     12.50% |     1713873     12.44%     24.94% |     1692660     12.29%     37.23% |     1708920     12.40%     49.63% |     1812139     13.15%     62.78% |     1703906     12.37%     75.15% |     1707632     12.39%     87.54% |     1716212     12.46%    100.00% (Unspecified)
system.caches.L1Cache_Controller.E.Load::total     13777491                       (Unspecified)
system.caches.L1Cache_Controller.E.Store |      207315     12.52%     12.52% |      206572     12.48%     25.00% |      206611     12.48%     37.48% |      206938     12.50%     49.98% |      206482     12.47%     62.45% |      207256     12.52%     74.97% |      207042     12.51%     87.48% |      207348     12.52%    100.00% (Unspecified)
system.caches.L1Cache_Controller.E.Store::total      1655564                       (Unspecified)
system.caches.L1Cache_Controller.E.Inv   |        2655     11.94%     11.94% |        2789     12.55%     24.49% |        2738     12.32%     36.81% |        2725     12.26%     49.07% |        2809     12.64%     61.71% |        2870     12.91%     74.62% |        2906     13.07%     87.70% |        2735     12.30%    100.00% (Unspecified)
system.caches.L1Cache_Controller.E.Inv::total        22227                       (Unspecified)
system.caches.L1Cache_Controller.E.L1_Replacement |      189022     12.46%     12.46% |      189492     12.49%     24.95% |      188571     12.43%     37.38% |      189828     12.51%     49.90% |      190448     12.56%     62.45% |      190012     12.53%     74.98% |      189338     12.48%     87.46% |      190186     12.54%    100.00% (Unspecified)
system.caches.L1Cache_Controller.E.L1_Replacement::total      1516897                       (Unspecified)
system.caches.L1Cache_Controller.E.Fwd_GETX |           0      0.00%      0.00% |           2    100.00%    100.00% |           0      0.00%    100.00% |           0      0.00%    100.00% |           0      0.00%    100.00% |           0      0.00%    100.00% |           0      0.00%    100.00% |           0      0.00%    100.00% (Unspecified)
system.caches.L1Cache_Controller.E.Fwd_GETX::total            2                       (Unspecified)
system.caches.L1Cache_Controller.E.Fwd_GETS |       40154     12.44%     12.44% |       40252     12.47%     24.91% |       40199     12.45%     37.36% |       40417     12.52%     49.88% |       40112     12.43%     62.30% |       40506     12.55%     74.85% |       40803     12.64%     87.49% |       40383     12.51%    100.00% (Unspecified)
system.caches.L1Cache_Controller.E.Fwd_GETS::total       322826                       (Unspecified)
system.caches.L1Cache_Controller.M.Load  |     1394406     12.57%     12.57% |     1382983     12.47%     25.03% |     1386022     12.49%     37.53% |     1390282     12.53%     50.06% |     1376983     12.41%     62.47% |     1390878     12.54%     75.01% |     1386514     12.50%     87.50% |     1386369     12.50%    100.00% (Unspecified)
system.caches.L1Cache_Controller.M.Load::total     11094437                       (Unspecified)
system.caches.L1Cache_Controller.M.Store |      984239     12.58%     12.58% |      975650     12.47%     25.05% |      975285     12.46%     37.51% |      978364     12.50%     50.01% |      978982     12.51%     62.52% |      978684     12.51%     75.03% |      976464     12.48%     87.51% |      977541     12.49%    100.00% (Unspecified)
system.caches.L1Cache_Controller.M.Store::total      7825209                       (Unspecified)
system.caches.L1Cache_Controller.M.Inv   |        3102     12.61%     12.61% |        3053     12.41%     25.02% |        3026     12.30%     37.32% |        3018     12.27%     49.58% |        3156     12.83%     62.41% |        3022     12.28%     74.69% |        3146     12.79%     87.48% |        3081     12.52%    100.00% (Unspecified)
system.caches.L1Cache_Controller.M.Inv::total        24604                       (Unspecified)
system.caches.L1Cache_Controller.M.L1_Replacement |      216079     13.17%     13.17% |      202743     12.36%     25.53% |      202991     12.37%     37.90% |      204038     12.44%     50.34% |      203512     12.41%     62.75% |      204115     12.44%     75.19% |      203206     12.39%     87.57% |      203856     12.43%    100.00% (Unspecified)
system.caches.L1Cache_Controller.M.L1_Replacement::total      1640540                       (Unspecified)
system.caches.L1Cache_Controller.M.Fwd_GETX |          34     14.59%     14.59% |          30     12.88%     27.47% |          30     12.88%     40.34% |          29     12.45%     52.79% |          32     13.73%     66.52% |          26     11.16%     77.68% |          25     10.73%     88.41% |          27     11.59%    100.00% (Unspecified)
system.caches.L1Cache_Controller.M.Fwd_GETX::total          233                       (Unspecified)
system.caches.L1Cache_Controller.M.Fwd_GETS |       36220     12.85%     12.85% |       35292     12.52%     25.38% |       35228     12.50%     37.88% |       35058     12.44%     50.32% |       34992     12.42%     62.73% |       34822     12.36%     75.09% |       35178     12.48%     87.57% |       35030     12.43%    100.00% (Unspecified)
system.caches.L1Cache_Controller.M.Fwd_GETS::total       281820                       (Unspecified)
system.caches.L1Cache_Controller.IS.Inv  |           0      0.00%      0.00% |           2     15.38%     15.38% |           1      7.69%     23.08% |           2     15.38%     38.46% |           2     15.38%     53.85% |           2     15.38%     69.23% |           2     15.38%     84.62% |           2     15.38%    100.00% (Unspecified)
system.caches.L1Cache_Controller.IS.Inv::total           13                       (Unspecified)
system.caches.L1Cache_Controller.IS.L1_Replacement |           0      0.00%      0.00% |           0      0.00%      0.00% |           0      0.00%      0.00% |           0      0.00%      0.00% |           0      0.00%      0.00% |           0      0.00%      0.00% |           0      0.00%      0.00% |           1    100.00%    100.00% (Unspecified)
system.caches.L1Cache_Controller.IS.L1_Replacement::total            1                       (Unspecified)
system.caches.L1Cache_Controller.IS.Data_Exclusive |      441497     12.52%     12.52% |      440010     12.48%     24.99% |      439138     12.45%     37.45% |      440913     12.50%     49.95% |      440846     12.50%     62.45% |      441552     12.52%     74.97% |      441198     12.51%     87.48% |      441691     12.52%    100.00% (Unspecified)
system.caches.L1Cache_Controller.IS.Data_Exclusive::total      3526845                       (Unspecified)
system.caches.L1Cache_Controller.IS.DataS_fromL1 |       75917     12.56%     12.56% |       75448     12.48%     25.03% |       75453     12.48%     37.51% |       76110     12.59%     50.10% |       75102     12.42%     62.52% |       75636     12.51%     75.03% |       75240     12.44%     87.47% |       75741     12.53%    100.00% (Unspecified)
system.caches.L1Cache_Controller.IS.DataS_fromL1::total       604647                       (Unspecified)
system.caches.L1Cache_Controller.IS.Data_all_Acks |      312015     12.59%     12.59% |      309777     12.50%     25.09% |      308758     12.46%     37.54% |      310613     12.53%     50.08% |      309581     12.49%     62.57% |      309524     12.49%     75.05% |      308291     12.44%     87.49% |      310017     12.51%    100.00% (Unspecified)
system.caches.L1Cache_Controller.IS.Data_all_Acks::total      2478576                       (Unspecified)
system.caches.L1Cache_Controller.IM.Data |          72    100.00%    100.00% |           0      0.00%    100.00% |           0      0.00%    100.00% |           0      0.00%    100.00% |           0      0.00%    100.00% |           0      0.00%    100.00% |           0      0.00%    100.00% |           0      0.00%    100.00% (Unspecified)
system.caches.L1Cache_Controller.IM.Data::total           72                       (Unspecified)
system.caches.L1Cache_Controller.IM.Data_all_Acks |        1410     14.28%     14.28% |        1070     10.83%     25.11% |        1058     10.71%     35.82% |        1077     10.90%     46.72% |        2075     21.01%     67.73% |        1051     10.64%     78.37% |        1058     10.71%     89.09% |        1078     10.91%    100.00% (Unspecified)
system.caches.L1Cache_Controller.IM.Data_all_Acks::total         9877                       (Unspecified)
system.caches.L1Cache_Controller.SM.Inv  |           2      7.41%      7.41% |           1      3.70%     11.11% |           5     18.52%     29.63% |           5     18.52%     48.15% |           1      3.70%     51.85% |           5     18.52%     70.37% |           1      3.70%     74.07% |           7     25.93%    100.00% (Unspecified)
system.caches.L1Cache_Controller.SM.Inv::total           27                       (Unspecified)
system.caches.L1Cache_Controller.SM.Ack  |       40023     12.75%     12.75% |       39288     12.51%     25.26% |       39151     12.47%     37.73% |       39493     12.58%     50.30% |       38445     12.24%     62.55% |       39184     12.48%     75.02% |       39185     12.48%     87.50% |       39243     12.50%    100.00% (Unspecified)
system.caches.L1Cache_Controller.SM.Ack::total       314012                       (Unspecified)
system.caches.L1Cache_Controller.SM.Ack_all |       35943     12.59%     12.59% |       35642     12.49%     25.08% |       35637     12.49%     37.56% |       36099     12.65%     50.21% |       35132     12.31%     62.52% |       35848     12.56%     75.08% |       35466     12.43%     87.50% |       35667     12.50%    100.00% (Unspecified)
system.caches.L1Cache_Controller.SM.Ack_all::total       285434                       (Unspecified)
system.caches.L1Cache_Controller.IS_I.Data_Exclusive |           0      0.00%      0.00% |           0      0.00%      0.00% |           1    100.00%    100.00% |           0      0.00%    100.00% |           0      0.00%    100.00% |           0      0.00%    100.00% |           0      0.00%    100.00% |           0      0.00%    100.00% (Unspecified)
system.caches.L1Cache_Controller.IS_I.Data_Exclusive::total            1                       (Unspecified)
system.caches.L1Cache_Controller.IS_I.Data_all_Acks |           0      0.00%      0.00% |           2     16.67%     16.67% |           0      0.00%     16.67% |           2     16.67%     33.33% |           2     16.67%     50.00% |           2     16.67%     66.67% |           2     16.67%     83.33% |           2     16.67%    100.00% (Unspecified)
system.caches.L1Cache_Controller.IS_I.Data_all_Acks::total           12                       (Unspecified)
system.caches.L1Cache_Controller.M_I.Load |           1     50.00%     50.00% |           0      0.00%     50.00% |           0      0.00%     50.00% |           0      0.00%     50.00% |           0      0.00%     50.00% |           1     50.00%    100.00% |           0      0.00%    100.00% |           0      0.00%    100.00% (Unspecified)
system.caches.L1Cache_Controller.M_I.Load::total            2                       (Unspecified)
system.caches.L1Cache_Controller.M_I.Inv |           0      0.00%      0.00% |           0      0.00%      0.00% |           0      0.00%      0.00% |           0      0.00%      0.00% |           0      0.00%      0.00% |           0      0.00%      0.00% |           0      0.00%      0.00% |           1    100.00%    100.00% (Unspecified)
system.caches.L1Cache_Controller.M_I.Inv::total            1                       (Unspecified)
system.caches.L1Cache_Controller.M_I.Fwd_GETS |           0      0.00%      0.00% |           0      0.00%      0.00% |           1    100.00%    100.00% |           0      0.00%    100.00% |           0      0.00%    100.00% |           0      0.00%    100.00% |           0      0.00%    100.00% |           0      0.00%    100.00% (Unspecified)
system.caches.L1Cache_Controller.M_I.Fwd_GETS::total            1                       (Unspecified)
system.caches.L1Cache_Controller.M_I.WB_Ack |      405101     12.83%     12.83% |      392235     12.42%     25.25% |      391561     12.40%     37.65% |      393866     12.47%     50.13% |      393960     12.48%     62.61% |      394127     12.48%     75.09% |      392544     12.43%     87.52% |      394041     12.48%    100.00% (Unspecified)
system.caches.L1Cache_Controller.M_I.WB_Ack::total      3157435                       (Unspecified)
system.caches.L1Cache_Controller.SINK_WB_ACK.WB_Ack |           0      0.00%      0.00% |           0      0.00%      0.00% |           1     50.00%     50.00% |           0      0.00%     50.00% |           0      0.00%     50.00% |           0      0.00%     50.00% |           0      0.00%     50.00% |           1     50.00%    100.00% (Unspecified)
system.caches.L1Cache_Controller.SINK_WB_ACK.WB_Ack::total            2                       (Unspecified)
system.caches.Directory_Controller.Fetch |        2461      0.10%      0.10% |     2484313     99.90%    100.00% (Unspecified)
system.caches.Directory_Controller.Fetch::total      2486774                       (Unspecified)
system.caches.Directory_Controller.Data  |          46      0.00%      0.00% |     1146652    100.00%    100.00% (Unspecified)
system.caches.Directory_Controller.Data::total      1146698                       (Unspecified)
system.caches.Directory_Controller.Memory_Data |        2461      0.10%      0.10% |     2484304     99.90%    100.00% (Unspecified)
system.caches.Directory_Controller.Memory_Data::total      2486765                       (Unspecified)
system.caches.Directory_Controller.Memory_Ack |          46      0.00%      0.00% |     1146652    100.00%    100.00% (Unspecified)
system.caches.Directory_Controller.Memory_Ack::total      1146698                       (Unspecified)
system.caches.Directory_Controller.CleanReplacement |        2402      0.20%      0.20% |     1206602     99.80%    100.00% (Unspecified)
system.caches.Directory_Controller.CleanReplacement::total      1209004                       (Unspecified)
system.caches.Directory_Controller.I.Fetch |        2461      0.10%      0.10% |     2484313     99.90%    100.00% (Unspecified)
system.caches.Directory_Controller.I.Fetch::total      2486774                       (Unspecified)
system.caches.Directory_Controller.M.Data |          46      0.00%      0.00% |     1146652    100.00%    100.00% (Unspecified)
system.caches.Directory_Controller.M.Data::total      1146698                       (Unspecified)
system.caches.Directory_Controller.M.CleanReplacement |        2402      0.20%      0.20% |     1206602     99.80%    100.00% (Unspecified)
system.caches.Directory_Controller.M.CleanReplacement::total      1209004                       (Unspecified)
system.caches.Directory_Controller.IM.Memory_Data |        2461      0.10%      0.10% |     2484304     99.90%    100.00% (Unspecified)
system.caches.Directory_Controller.IM.Memory_Data::total      2486765                       (Unspecified)
system.caches.Directory_Controller.MI.Memory_Ack |          46      0.00%      0.00% |     1146652    100.00%    100.00% (Unspecified)
system.caches.Directory_Controller.MI.Memory_Ack::total      1146698                       (Unspecified)
system.caches.L2Cache_Controller.L1_GET_INSTR |        2160     12.01%     12.01% |        2977     16.55%     28.56% |        2127     11.82%     40.38% |        1607      8.93%     49.31% |        2293     12.75%     62.06% |        2307     12.82%     74.88% |        2097     11.66%     86.54% |        2421     13.46%    100.00% (Unspecified)
system.caches.L2Cache_Controller.L1_GET_INSTR::total        17989                       (Unspecified)
system.caches.L2Cache_Controller.L1_GETS |      823567     12.49%     12.49% |      829191     12.58%     25.07% |      826742     12.54%     37.61% |      825911     12.53%     50.14% |      817524     12.40%     62.54% |      822511     12.48%     75.02% |      825857     12.53%     87.55% |      821077     12.45%    100.00% (Unspecified)
system.caches.L2Cache_Controller.L1_GETS::total      6592380                       (Unspecified)
system.caches.L2Cache_Controller.L1_GETX |        1448     14.54%     14.54% |        1141     11.45%     25.99% |         586      5.88%     31.87% |        1019     10.23%     42.10% |        1208     12.13%     54.23% |        1630     16.36%     70.60% |        1342     13.47%     84.07% |        1587     15.93%    100.00% (Unspecified)
system.caches.L2Cache_Controller.L1_GETX::total         9961                       (Unspecified)
system.caches.L2Cache_Controller.L1_UPGRADE |       35834     12.56%     12.56% |       34458     12.07%     24.63% |       35503     12.44%     37.07% |       36090     12.64%     49.71% |       35764     12.53%     62.24% |       36205     12.69%     74.93% |       35477     12.43%     87.36% |       36079     12.64%    100.00% (Unspecified)
system.caches.L2Cache_Controller.L1_UPGRADE::total       285410                       (Unspecified)
system.caches.L2Cache_Controller.L1_PUTX |      394959     12.51%     12.51% |      396064     12.54%     25.05% |      394620     12.50%     37.55% |      395209     12.52%     50.07% |      392232     12.42%     62.49% |      395864     12.54%     75.03% |      393727     12.47%     87.50% |      394762     12.50%    100.00% (Unspecified)
system.caches.L2Cache_Controller.L1_PUTX::total      3157437                       (Unspecified)
system.caches.L2Cache_Controller.L1_PUTX_old |           0      0.00%      0.00% |           0      0.00%      0.00% |           0      0.00%      0.00% |           0      0.00%      0.00% |           0      0.00%      0.00% |           0      0.00%      0.00% |           2    100.00%    100.00% |           0      0.00%    100.00% (Unspecified)
system.caches.L2Cache_Controller.L1_PUTX_old::total            2                       (Unspecified)
system.caches.L2Cache_Controller.L2_Replacement |      140983     12.47%     12.47% |      141795     12.55%     25.02% |      141566     12.53%     37.55% |      141477     12.52%     50.07% |      140859     12.46%     62.53% |      141898     12.56%     75.08% |      140820     12.46%     87.55% |      140759     12.45%    100.00% (Unspecified)
system.caches.L2Cache_Controller.L2_Replacement::total      1130157                       (Unspecified)
system.caches.L2Cache_Controller.L2_Replacement_clean |      153451     12.52%     12.52% |      153277     12.51%     25.03% |      153529     12.53%     37.56% |      153345     12.51%     50.07% |      152387     12.43%     62.50% |      153405     12.52%     75.02% |      153046     12.49%     87.51% |      153105     12.49%    100.00% (Unspecified)
system.caches.L2Cache_Controller.L2_Replacement_clean::total      1225545                       (Unspecified)
system.caches.L2Cache_Controller.Mem_Data |      310818     12.50%     12.50% |      311455     12.52%     25.02% |      311476     12.53%     37.55% |      311205     12.51%     50.06% |      309629     12.45%     62.51% |      311687     12.53%     75.05% |      310248     12.48%     87.52% |      310247     12.48%    100.00% (Unspecified)
system.caches.L2Cache_Controller.Mem_Data::total      2486765                       (Unspecified)
system.caches.L2Cache_Controller.Mem_Ack |      294434     12.50%     12.50% |      295072     12.53%     25.02% |      295095     12.53%     37.55% |      294822     12.52%     50.07% |      293246     12.45%     62.52% |      295303     12.54%     75.05% |      293866     12.47%     87.53% |      293864     12.47%    100.00% (Unspecified)
system.caches.L2Cache_Controller.Mem_Ack::total      2355702                       (Unspecified)
system.caches.L2Cache_Controller.WB_Data |       38609     12.60%     12.60% |       36915     12.05%     24.65% |       38128     12.44%     37.09% |       38749     12.65%     49.74% |       38390     12.53%     62.26% |       38792     12.66%     74.92% |       38013     12.41%     87.33% |       38829     12.67%    100.00% (Unspecified)
system.caches.L2Cache_Controller.WB_Data::total       306425                       (Unspecified)
system.caches.L2Cache_Controller.WB_Data_clean |       40676     12.60%     12.60% |       40027     12.40%     25.00% |       40372     12.51%     37.50% |       40293     12.48%     49.99% |       40542     12.56%     62.54% |       40207     12.45%     75.00% |       40510     12.55%     87.55% |       40200     12.45%    100.00% (Unspecified)
system.caches.L2Cache_Controller.WB_Data_clean::total       322827                       (Unspecified)
system.caches.L2Cache_Controller.Ack     |       96658     12.72%     12.72% |       93905     12.36%     25.07% |       94536     12.44%     37.51% |       94388     12.42%     49.93% |       95274     12.54%     62.47% |       94570     12.44%     74.91% |       95964     12.63%     87.54% |       94730     12.46%    100.00% (Unspecified)
system.caches.L2Cache_Controller.Ack::total       760025                       (Unspecified)
system.caches.L2Cache_Controller.Ack_all |       37662     12.65%     12.65% |       36874     12.39%     25.04% |       37097     12.46%     37.50% |       37098     12.46%     49.96% |       37414     12.57%     62.53% |       37012     12.43%     74.96% |       37342     12.54%     87.50% |       37198     12.50%    100.00% (Unspecified)
system.caches.L2Cache_Controller.Ack_all::total       297697                       (Unspecified)
system.caches.L2Cache_Controller.Unblock |       76141     12.59%     12.59% |       74008     12.24%     24.83% |       75400     12.47%     37.30% |       75988     12.57%     49.87% |       75841     12.54%     62.41% |       75975     12.57%     74.98% |       75480     12.48%     87.46% |       75814     12.54%    100.00% (Unspecified)
system.caches.L2Cache_Controller.Unblock::total       604647                       (Unspecified)
system.caches.L2Cache_Controller.Exclusive_Unblock |      478735     12.53%     12.53% |      477298     12.49%     25.01% |      477488     12.49%     37.51% |      478616     12.52%     50.03% |      475586     12.44%     62.47% |      479172     12.54%     75.01% |      476683     12.47%     87.48% |      478579     12.52%    100.00% (Unspecified)
system.caches.L2Cache_Controller.Exclusive_Unblock::total      3822157                       (Unspecified)
system.caches.L2Cache_Controller.NP.L1_GET_INSTR |         314     12.60%     12.60% |         353     14.16%     26.75% |         313     12.56%     39.31% |         243      9.75%     49.06% |         327     13.12%     62.17% |         324     13.00%     75.17% |         300     12.03%     87.20% |         319     12.80%    100.00% (Unspecified)
system.caches.L2Cache_Controller.NP.L1_GET_INSTR::total         2493                       (Unspecified)
system.caches.L2Cache_Controller.NP.L1_GETS |      309900     12.50%     12.50% |      310532     12.52%     25.02% |      310679     12.53%     37.55% |      310439     12.52%     50.07% |      308730     12.45%     62.52% |      310725     12.53%     75.05% |      309348     12.48%     87.53% |      309301     12.47%    100.00% (Unspecified)
system.caches.L2Cache_Controller.NP.L1_GETS::total      2479654                       (Unspecified)
system.caches.L2Cache_Controller.NP.L1_GETX |         604     13.05%     13.05% |         571     12.34%     25.39% |         487     10.53%     35.92% |         524     11.32%     47.24% |         573     12.38%     59.63% |         638     13.79%     73.42% |         602     13.01%     86.43% |         628     13.57%    100.00% (Unspecified)
system.caches.L2Cache_Controller.NP.L1_GETX::total         4627                       (Unspecified)
system.caches.L2Cache_Controller.NP.L1_PUTX_old |           0      0.00%      0.00% |           0      0.00%      0.00% |           0      0.00%      0.00% |           0      0.00%      0.00% |           0      0.00%      0.00% |           0      0.00%      0.00% |           1    100.00%    100.00% |           0      0.00%    100.00% (Unspecified)
system.caches.L2Cache_Controller.NP.L1_PUTX_old::total            1                       (Unspecified)
system.caches.L2Cache_Controller.SS.L1_GET_INSTR |        1476     11.59%     11.59% |        2159     16.95%     28.54% |        1441     11.32%     39.86% |        1026      8.06%     47.92% |        1629     12.79%     60.71% |        1619     12.71%     73.42% |        1522     11.95%     85.37% |        1863     14.63%    100.00% (Unspecified)
system.caches.L2Cache_Controller.SS.L1_GET_INSTR::total        12735                       (Unspecified)
system.caches.L2Cache_Controller.SS.L1_GETS |      305847     12.43%     12.43% |      313298     12.74%     25.17% |      309853     12.60%     37.76% |      308355     12.53%     50.30% |      303024     12.32%     62.62% |      305095     12.40%     75.02% |      310269     12.61%     87.63% |      304242     12.37%    100.00% (Unspecified)
system.caches.L2Cache_Controller.SS.L1_GETS::total      2459983                       (Unspecified)
system.caches.L2Cache_Controller.SS.L1_GETX |          47     65.28%     65.28% |           0      0.00%     65.28% |           0      0.00%     65.28% |           0      0.00%     65.28% |           0      0.00%     65.28% |           0      0.00%     65.28% |          25     34.72%    100.00% |           0      0.00%    100.00% (Unspecified)
system.caches.L2Cache_Controller.SS.L1_GETX::total           72                       (Unspecified)
system.caches.L2Cache_Controller.SS.L1_UPGRADE |       35830     12.56%     12.56% |       34455     12.07%     24.63% |       35497     12.44%     37.07% |       36088     12.65%     49.72% |       35761     12.53%     62.25% |       36204     12.69%     74.93% |       35452     12.42%     87.36% |       36075     12.64%    100.00% (Unspecified)
system.caches.L2Cache_Controller.SS.L1_UPGRADE::total       285362                       (Unspecified)
system.caches.L2Cache_Controller.SS.L1_PUTX |           0      0.00%      0.00% |           0      0.00%      0.00% |           0      0.00%      0.00% |           0      0.00%      0.00% |           0      0.00%      0.00% |           1    100.00%    100.00% |           0      0.00%    100.00% |           0      0.00%    100.00% (Unspecified)
system.caches.L2Cache_Controller.SS.L1_PUTX::total            1                       (Unspecified)
system.caches.L2Cache_Controller.SS.L2_Replacement |        2396     12.84%     12.84% |        2284     12.24%     25.08% |        2325     12.46%     37.53% |        2382     12.76%     50.30% |        2370     12.70%     63.00% |        2301     12.33%     75.33% |        2263     12.13%     87.45% |        2342     12.55%    100.00% (Unspecified)
system.caches.L2Cache_Controller.SS.L2_Replacement::total        18663                       (Unspecified)
system.caches.L2Cache_Controller.SS.L2_Replacement_clean |       32419     12.62%     12.62% |       31854     12.40%     25.03% |       32009     12.46%     37.49% |       31967     12.45%     49.94% |       32222     12.55%     62.49% |       32000     12.46%     74.95% |       32322     12.59%     87.53% |       32014     12.47%    100.00% (Unspecified)
system.caches.L2Cache_Controller.SS.L2_Replacement_clean::total       256807                       (Unspecified)
system.caches.L2Cache_Controller.M.L1_GET_INSTR |           0      0.00%      0.00% |           2     20.00%     20.00% |           2     20.00%     40.00% |           0      0.00%     40.00% |           1     10.00%     50.00% |           1     10.00%     60.00% |           2     20.00%     80.00% |           2     20.00%    100.00% (Unspecified)
system.caches.L2Cache_Controller.M.L1_GET_INSTR::total           10                       (Unspecified)
system.caches.L2Cache_Controller.M.L1_GETS |      131601     12.56%     12.56% |      131206     12.53%     25.09% |      130763     12.48%     37.58% |      131093     12.52%     50.09% |      129904     12.40%     62.49% |      130633     12.47%     74.97% |      130568     12.47%     87.43% |      131652     12.57%    100.00% (Unspecified)
system.caches.L2Cache_Controller.M.L1_GETS::total      1047420                       (Unspecified)
system.caches.L2Cache_Controller.M.L1_GETX |         791     15.77%     15.77% |         567     11.31%     27.08% |          90      1.79%     28.87% |         493      9.83%     38.70% |         630     12.56%     51.27% |         988     19.70%     70.97% |         708     14.12%     85.08% |         748     14.92%    100.00% (Unspecified)
system.caches.L2Cache_Controller.M.L1_GETX::total         5015                       (Unspecified)
system.caches.L2Cache_Controller.M.L2_Replacement |      137479     12.46%     12.46% |      138513     12.56%     25.02% |      138179     12.53%     37.55% |      138086     12.52%     50.07% |      137390     12.46%     62.52% |      138553     12.56%     75.08% |      137509     12.47%     87.55% |      137366     12.45%    100.00% (Unspecified)
system.caches.L2Cache_Controller.M.L2_Replacement::total      1103075                       (Unspecified)
system.caches.L2Cache_Controller.M.L2_Replacement_clean |      116149     12.48%     12.48% |      116751     12.55%     25.03% |      116719     12.55%     37.58% |      116584     12.53%     50.11% |      115351     12.40%     62.51% |      116714     12.55%     75.06% |      115972     12.47%     87.52% |      116085     12.48%    100.00% (Unspecified)
system.caches.L2Cache_Controller.M.L2_Replacement_clean::total       930325                       (Unspecified)
system.caches.L2Cache_Controller.MT.L1_GETS |       76141     12.59%     12.59% |       74008     12.24%     24.83% |       75400     12.47%     37.30% |       75988     12.57%     49.87% |       75841     12.54%     62.41% |       75975     12.57%     74.98% |       75480     12.48%     87.46% |       75814     12.54%    100.00% (Unspecified)
system.caches.L2Cache_Controller.MT.L1_GETS::total       604647                       (Unspecified)
system.caches.L2Cache_Controller.MT.L1_GETX |           4      1.70%      1.70% |           3      1.28%      2.98% |           8      3.40%      6.38% |           2      0.85%      7.23% |           5      2.13%      9.36% |           4      1.70%     11.06% |           7      2.98%     14.04% |         202     85.96%    100.00% (Unspecified)
system.caches.L2Cache_Controller.MT.L1_GETX::total          235                       (Unspecified)
system.caches.L2Cache_Controller.MT.L1_PUTX |      394959     12.51%     12.51% |      396064     12.54%     25.05% |      394620     12.50%     37.55% |      395209     12.52%     50.07% |      392232     12.42%     62.49% |      395862     12.54%     75.03% |      393727     12.47%     87.50% |      394762     12.50%    100.00% (Unspecified)
system.caches.L2Cache_Controller.MT.L1_PUTX::total      3157435                       (Unspecified)
system.caches.L2Cache_Controller.MT.L2_Replacement |        1108     13.16%     13.16% |         998     11.85%     25.01% |        1062     12.61%     37.63% |        1009     11.98%     49.61% |        1099     13.05%     62.67% |        1044     12.40%     75.07% |        1048     12.45%     87.52% |        1051     12.48%    100.00% (Unspecified)
system.caches.L2Cache_Controller.MT.L2_Replacement::total         8419                       (Unspecified)
system.caches.L2Cache_Controller.MT.L2_Replacement_clean |        4883     12.71%     12.71% |        4672     12.16%     24.87% |        4801     12.50%     37.37% |        4794     12.48%     49.85% |        4814     12.53%     62.39% |        4691     12.21%     74.60% |        4752     12.37%     86.97% |        5006     13.03%    100.00% (Unspecified)
system.caches.L2Cache_Controller.MT.L2_Replacement_clean::total        38413                       (Unspecified)
system.caches.L2Cache_Controller.M_I.L1_GET_INSTR |          21     25.93%     25.93% |          24     29.63%     55.56% |          21     25.93%     81.48% |          15     18.52%    100.00% |           0      0.00%    100.00% |           0      0.00%    100.00% |           0      0.00%    100.00% |           0      0.00%    100.00% (Unspecified)
system.caches.L2Cache_Controller.M_I.L1_GET_INSTR::total           81                       (Unspecified)
system.caches.L2Cache_Controller.M_I.L1_GETS |           4      7.84%      7.84% |          10     19.61%     27.45% |           0      0.00%     27.45% |           0      0.00%     27.45% |           2      3.92%     31.37% |           6     11.76%     43.14% |           5      9.80%     52.94% |          24     47.06%    100.00% (Unspecified)
system.caches.L2Cache_Controller.M_I.L1_GETS::total           51                       (Unspecified)
system.caches.L2Cache_Controller.M_I.L1_GETX |           2     18.18%     18.18% |           0      0.00%     18.18% |           0      0.00%     18.18% |           0      0.00%     18.18% |           0      0.00%     18.18% |           0      0.00%     18.18% |           0      0.00%     18.18% |           9     81.82%    100.00% (Unspecified)
system.caches.L2Cache_Controller.M_I.L1_GETX::total           11                       (Unspecified)
system.caches.L2Cache_Controller.M_I.Mem_Ack |      294434     12.50%     12.50% |      295072     12.53%     25.02% |      295095     12.53%     37.55% |      294822     12.52%     50.07% |      293246     12.45%     62.52% |      295303     12.54%     75.05% |      293866     12.47%     87.53% |      293864     12.47%    100.00% (Unspecified)
system.caches.L2Cache_Controller.M_I.Mem_Ack::total      2355702                       (Unspecified)
system.caches.L2Cache_Controller.MT_I.WB_Data |        1077     13.36%     13.36% |         951     11.79%     25.15% |        1025     12.71%     37.86% |         960     11.91%     49.77% |        1047     12.99%     62.76% |         998     12.38%     75.13% |        1000     12.40%     87.54% |        1005     12.46%    100.00% (Unspecified)
system.caches.L2Cache_Controller.MT_I.WB_Data::total         8063                       (Unspecified)
system.caches.L2Cache_Controller.MT_I.Ack_all |          31      8.71%      8.71% |          47     13.20%     21.91% |          37     10.39%     32.30% |          49     13.76%     46.07% |          52     14.61%     60.67% |          46     12.92%     73.60% |          48     13.48%     87.08% |          46     12.92%    100.00% (Unspecified)
system.caches.L2Cache_Controller.MT_I.Ack_all::total          356                       (Unspecified)
system.caches.L2Cache_Controller.MCT_I.L1_PUTX_old |           0      0.00%      0.00% |           0      0.00%      0.00% |           0      0.00%      0.00% |           0      0.00%      0.00% |           0      0.00%      0.00% |           0      0.00%      0.00% |           1    100.00%    100.00% |           0      0.00%    100.00% (Unspecified)
system.caches.L2Cache_Controller.MCT_I.L1_PUTX_old::total            1                       (Unspecified)
system.caches.L2Cache_Controller.MCT_I.WB_Data |        2067     12.50%     12.50% |        1983     11.99%     24.48% |        2075     12.54%     37.03% |        2094     12.66%     49.69% |        2044     12.36%     62.05% |        2026     12.25%     74.29% |        2042     12.35%     86.64% |        2210     13.36%    100.00% (Unspecified)
system.caches.L2Cache_Controller.MCT_I.WB_Data::total        16541                       (Unspecified)
system.caches.L2Cache_Controller.MCT_I.WB_Data_clean |           0      0.00%      0.00% |           0      0.00%      0.00% |           0      0.00%      0.00% |           0      0.00%      0.00% |           0      0.00%      0.00% |           0      0.00%      0.00% |           1    100.00%    100.00% |           0      0.00%    100.00% (Unspecified)
system.caches.L2Cache_Controller.MCT_I.WB_Data_clean::total            1                       (Unspecified)
system.caches.L2Cache_Controller.MCT_I.Ack_all |        2816     12.88%     12.88% |        2689     12.29%     25.17% |        2726     12.46%     37.63% |        2700     12.35%     49.98% |        2770     12.67%     62.64% |        2665     12.19%     74.83% |        2709     12.39%     87.22% |        2796     12.78%    100.00% (Unspecified)
system.caches.L2Cache_Controller.MCT_I.Ack_all::total        21871                       (Unspecified)
system.caches.L2Cache_Controller.I_I.L1_GET_INSTR |           0      0.00%      0.00% |           0      0.00%      0.00% |           1    100.00%    100.00% |           0      0.00%    100.00% |           0      0.00%    100.00% |           0      0.00%    100.00% |           0      0.00%    100.00% |           0      0.00%    100.00% (Unspecified)
system.caches.L2Cache_Controller.I_I.L1_GET_INSTR::total            1                       (Unspecified)
system.caches.L2Cache_Controller.I_I.L1_GETS |           0      0.00%      0.00% |           0      0.00%      0.00% |           0      0.00%      0.00% |           0      0.00%      0.00% |           0      0.00%      0.00% |           1     50.00%     50.00% |           0      0.00%     50.00% |           1     50.00%    100.00% (Unspecified)
system.caches.L2Cache_Controller.I_I.L1_GETS::total            2                       (Unspecified)
system.caches.L2Cache_Controller.I_I.Ack |       89111     12.68%     12.68% |       86841     12.36%     25.04% |       87313     12.43%     37.47% |       87182     12.41%     49.88% |       88020     12.53%     62.40% |       87723     12.48%     74.89% |       88968     12.66%     87.55% |       87478     12.45%    100.00% (Unspecified)
system.caches.L2Cache_Controller.I_I.Ack::total       702636                       (Unspecified)
system.caches.L2Cache_Controller.I_I.Ack_all |       32419     12.62%     12.62% |       31854     12.40%     25.03% |       32009     12.46%     37.49% |       31967     12.45%     49.94% |       32222     12.55%     62.49% |       32000     12.46%     74.95% |       32322     12.59%     87.53% |       32014     12.47%    100.00% (Unspecified)
system.caches.L2Cache_Controller.I_I.Ack_all::total       256807                       (Unspecified)
system.caches.L2Cache_Controller.S_I.Ack |        7547     13.15%     13.15% |        7064     12.31%     25.46% |        7223     12.59%     38.05% |        7206     12.56%     50.60% |        7254     12.64%     63.24% |        6847     11.93%     75.17% |        6996     12.19%     87.36% |        7252     12.64%    100.00% (Unspecified)
system.caches.L2Cache_Controller.S_I.Ack::total        57389                       (Unspecified)
system.caches.L2Cache_Controller.S_I.Ack_all |        2396     12.84%     12.84% |        2284     12.24%     25.08% |        2325     12.46%     37.53% |        2382     12.76%     50.30% |        2370     12.70%     63.00% |        2301     12.33%     75.33% |        2263     12.13%     87.45% |        2342     12.55%    100.00% (Unspecified)
system.caches.L2Cache_Controller.S_I.Ack_all::total        18663                       (Unspecified)
system.caches.L2Cache_Controller.ISS.L1_GETS |          42     19.18%     19.18% |          35     15.98%     35.16% |          33     15.07%     50.23% |          22     10.05%     60.27% |          16      7.31%     67.58% |          20      9.13%     76.71% |          25     11.42%     88.13% |          26     11.87%    100.00% (Unspecified)
system.caches.L2Cache_Controller.ISS.L1_GETS::total          219                       (Unspecified)
system.caches.L2Cache_Controller.ISS.Mem_Data |      309858     12.50%     12.50% |      310496     12.52%     25.02% |      310643     12.53%     37.55% |      310416     12.52%     50.07% |      308713     12.45%     62.52% |      310705     12.53%     75.05% |      309321     12.48%     87.53% |      309274     12.47%    100.00% (Unspecified)
system.caches.L2Cache_Controller.ISS.Mem_Data::total      2479426                       (Unspecified)
system.caches.L2Cache_Controller.IS.L1_GET_INSTR |         349     13.08%     13.08% |         439     16.45%     29.52% |         349     13.08%     42.60% |         323     12.10%     54.70% |         336     12.59%     67.29% |         363     13.60%     80.89% |         273     10.23%     91.12% |         237      8.88%    100.00% (Unspecified)
system.caches.L2Cache_Controller.IS.L1_GET_INSTR::total         2669                       (Unspecified)
system.caches.L2Cache_Controller.IS.L1_GETS |          19      7.31%      7.31% |          95     36.54%     43.85% |          12      4.62%     48.46% |          14      5.38%     53.85% |           6      2.31%     56.15% |          50     19.23%     75.38% |          48     18.46%     93.85% |          16      6.15%    100.00% (Unspecified)
system.caches.L2Cache_Controller.IS.L1_GETS::total          260                       (Unspecified)
system.caches.L2Cache_Controller.IS.Mem_Data |         356     13.13%     13.13% |         388     14.31%     27.43% |         346     12.76%     40.19% |         265      9.77%     49.96% |         343     12.65%     62.61% |         344     12.68%     75.29% |         325     11.98%     87.28% |         345     12.72%    100.00% (Unspecified)
system.caches.L2Cache_Controller.IS.Mem_Data::total         2712                       (Unspecified)
system.caches.L2Cache_Controller.IM.Mem_Data |         604     13.05%     13.05% |         571     12.34%     25.39% |         487     10.53%     35.92% |         524     11.32%     47.24% |         573     12.38%     59.63% |         638     13.79%     73.42% |         602     13.01%     86.43% |         628     13.57%    100.00% (Unspecified)
system.caches.L2Cache_Controller.IM.Mem_Data::total         4627                       (Unspecified)
system.caches.L2Cache_Controller.SS_MB.L1_GETS |           0      0.00%      0.00% |           1      1.19%      1.19% |           0      0.00%      1.19% |           0      0.00%      1.19% |           0      0.00%      1.19% |           1      1.19%      2.38% |          81     96.43%     98.81% |           1      1.19%    100.00% (Unspecified)
system.caches.L2Cache_Controller.SS_MB.L1_GETS::total           84                       (Unspecified)
system.caches.L2Cache_Controller.SS_MB.L1_GETX |           0      0.00%      0.00% |           0      0.00%      0.00% |           1    100.00%    100.00% |           0      0.00%    100.00% |           0      0.00%    100.00% |           0      0.00%    100.00% |           0      0.00%    100.00% |           0      0.00%    100.00% (Unspecified)
system.caches.L2Cache_Controller.SS_MB.L1_GETX::total            1                       (Unspecified)
system.caches.L2Cache_Controller.SS_MB.L1_UPGRADE |           4     14.81%     14.81% |           3     11.11%     25.93% |           6     22.22%     48.15% |           2      7.41%     55.56% |           3     11.11%     66.67% |           1      3.70%     70.37% |           4     14.81%     85.19% |           4     14.81%    100.00% (Unspecified)
system.caches.L2Cache_Controller.SS_MB.L1_UPGRADE::total           27                       (Unspecified)
system.caches.L2Cache_Controller.SS_MB.Exclusive_Unblock |       35877     12.57%     12.57% |       34455     12.07%     24.64% |       35497     12.44%     37.08% |       36088     12.64%     49.72% |       35761     12.53%     62.25% |       36204     12.68%     74.93% |       35477     12.43%     87.36% |       36075     12.64%    100.00% (Unspecified)
system.caches.L2Cache_Controller.SS_MB.Exclusive_Unblock::total       285434                       (Unspecified)
system.caches.L2Cache_Controller.MT_MB.L1_GETS |           1     16.67%     16.67% |           1     16.67%     33.33% |           2     33.33%     66.67% |           0      0.00%     66.67% |           1     16.67%     83.33% |           0      0.00%     83.33% |           1     16.67%    100.00% |           0      0.00%    100.00% (Unspecified)
system.caches.L2Cache_Controller.MT_MB.L1_GETS::total            6                       (Unspecified)
system.caches.L2Cache_Controller.MT_MB.Exclusive_Unblock |      442858     12.52%     12.52% |      442843     12.52%     25.04% |      441991     12.50%     37.54% |      442528     12.51%     50.05% |      439825     12.44%     62.49% |      442968     12.52%     75.01% |      441206     12.47%     87.49% |      442504     12.51%    100.00% (Unspecified)
system.caches.L2Cache_Controller.MT_MB.Exclusive_Unblock::total      3536723                       (Unspecified)
system.caches.L2Cache_Controller.MT_IIB.L1_GETS |          12     22.64%     22.64% |           5      9.43%     32.08% |           0      0.00%     32.08% |           0      0.00%     32.08% |           0      0.00%     32.08% |           4      7.55%     39.62% |          32     60.38%    100.00% |           0      0.00%    100.00% (Unspecified)
system.caches.L2Cache_Controller.MT_IIB.L1_GETS::total           53                       (Unspecified)
system.caches.L2Cache_Controller.MT_IIB.L1_PUTX |           0      0.00%      0.00% |           0      0.00%      0.00% |           0      0.00%      0.00% |           0      0.00%      0.00% |           0      0.00%      0.00% |           1    100.00%    100.00% |           0      0.00%    100.00% |           0      0.00%    100.00% (Unspecified)
system.caches.L2Cache_Controller.MT_IIB.L1_PUTX::total            1                       (Unspecified)
system.caches.L2Cache_Controller.MT_IIB.WB_Data |       35461     12.58%     12.58% |       33977     12.06%     24.64% |       35023     12.43%     37.07% |       35693     12.67%     49.74% |       35297     12.53%     62.26% |       35768     12.69%     74.95% |       34967     12.41%     87.36% |       35609     12.64%    100.00% (Unspecified)
system.caches.L2Cache_Controller.MT_IIB.WB_Data::total       281795                       (Unspecified)
system.caches.L2Cache_Controller.MT_IIB.WB_Data_clean |       40674     12.60%     12.60% |       40023     12.40%     25.00% |       40367     12.51%     37.50% |       40291     12.48%     49.99% |       40538     12.56%     62.54% |       40202     12.45%     75.00% |       40507     12.55%     87.55% |       40197     12.45%    100.00% (Unspecified)
system.caches.L2Cache_Controller.MT_IIB.WB_Data_clean::total       322799                       (Unspecified)
system.caches.L2Cache_Controller.MT_IIB.Unblock |           6     11.32%     11.32% |           8     15.09%     26.42% |          10     18.87%     45.28% |           4      7.55%     52.83% |           6     11.32%     64.15% |           5      9.43%     73.58% |           6     11.32%     84.91% |           8     15.09%    100.00% (Unspecified)
system.caches.L2Cache_Controller.MT_IIB.Unblock::total           53                       (Unspecified)
system.caches.L2Cache_Controller.MT_IB.WB_Data |           4     15.38%     15.38% |           4     15.38%     30.77% |           5     19.23%     50.00% |           2      7.69%     57.69% |           2      7.69%     65.38% |           0      0.00%     65.38% |           4     15.38%     80.77% |           5     19.23%    100.00% (Unspecified)
system.caches.L2Cache_Controller.MT_IB.WB_Data::total           26                       (Unspecified)
system.caches.L2Cache_Controller.MT_IB.WB_Data_clean |           2      7.41%      7.41% |           4     14.81%     22.22% |           5     18.52%     40.74% |           2      7.41%     48.15% |           4     14.81%     62.96% |           5     18.52%     81.48% |           2      7.41%     88.89% |           3     11.11%    100.00% (Unspecified)
system.caches.L2Cache_Controller.MT_IB.WB_Data_clean::total           27                       (Unspecified)
system.caches.L2Cache_Controller.MT_SB.L1_GETS |           0      0.00%      0.00% |           0      0.00%      0.00% |           0      0.00%      0.00% |           0      0.00%      0.00% |           0      0.00%      0.00% |           1    100.00%    100.00% |           0      0.00%    100.00% |           0      0.00%    100.00% (Unspecified)
system.caches.L2Cache_Controller.MT_SB.L1_GETS::total            1                       (Unspecified)
system.caches.L2Cache_Controller.MT_SB.L1_UPGRADE |           0      0.00%      0.00% |           0      0.00%      0.00% |           0      0.00%      0.00% |           0      0.00%      0.00% |           0      0.00%      0.00% |           0      0.00%      0.00% |          21    100.00%    100.00% |           0      0.00%    100.00% (Unspecified)
system.caches.L2Cache_Controller.MT_SB.L1_UPGRADE::total           21                       (Unspecified)
system.caches.L2Cache_Controller.MT_SB.Unblock |       76135     12.59%     12.59% |       74000     12.24%     24.83% |       75390     12.47%     37.30% |       75984     12.57%     49.87% |       75835     12.54%     62.41% |       75970     12.57%     74.98% |       75474     12.48%     87.46% |       75806     12.54%    100.00% (Unspecified)
system.caches.L2Cache_Controller.MT_SB.Unblock::total       604594                       (Unspecified)
system.caches.RequestType.LD.latency_hist_seqr::bucket_size          512                       (Unspecified)
system.caches.RequestType.LD.latency_hist_seqr::max_bucket         5119                       (Unspecified)
system.caches.RequestType.LD.latency_hist_seqr::samples     71887516                       (Unspecified)
system.caches.RequestType.LD.latency_hist_seqr::mean    19.119477                       (Unspecified)
system.caches.RequestType.LD.latency_hist_seqr::gmean     1.462535                       (Unspecified)
system.caches.RequestType.LD.latency_hist_seqr::stdev   102.797824                       (Unspecified)
system.caches.RequestType.LD.latency_hist_seqr |    71127120     98.94%     98.94% |      715893      1.00%     99.94% |        3091      0.00%     99.94% |       12120      0.02%     99.96% |       25219      0.04%     99.99% |        4058      0.01%    100.00% |          15      0.00%    100.00% |           0      0.00%    100.00% |           0      0.00%    100.00% |           0      0.00%    100.00% (Unspecified)
system.caches.RequestType.LD.latency_hist_seqr::total     71887516                       (Unspecified)
system.caches.RequestType.LD.hit_latency_hist_seqr::bucket_size            1                       (Unspecified)
system.caches.RequestType.LD.hit_latency_hist_seqr::max_bucket            9                       (Unspecified)
system.caches.RequestType.LD.hit_latency_hist_seqr::samples     65295342                       (Unspecified)
system.caches.RequestType.LD.hit_latency_hist_seqr::mean     1.010176                       (Unspecified)
system.caches.RequestType.LD.hit_latency_hist_seqr::gmean     1.006931                       (Unspecified)
system.caches.RequestType.LD.hit_latency_hist_seqr::stdev     0.105501                       (Unspecified)
system.caches.RequestType.LD.hit_latency_hist_seqr |           0      0.00%      0.00% |    64663090     99.03%     99.03% |      602430      0.92%     99.95% |       27461      0.04%    100.00% |        2360      0.00%    100.00% |           1      0.00%    100.00% |           0      0.00%    100.00% |           0      0.00%    100.00% |           0      0.00%    100.00% |           0      0.00%    100.00% (Unspecified)
system.caches.RequestType.LD.hit_latency_hist_seqr::total     65295342                       (Unspecified)
system.caches.RequestType.LD.miss_latency_hist_seqr::bucket_size          512                       (Unspecified)
system.caches.RequestType.LD.miss_latency_hist_seqr::max_bucket         5119                       (Unspecified)
system.caches.RequestType.LD.miss_latency_hist_seqr::samples      6592174                       (Unspecified)
system.caches.RequestType.LD.miss_latency_hist_seqr::mean   198.491717                       (Unspecified)
system.caches.RequestType.LD.miss_latency_hist_seqr::gmean    58.988432                       (Unspecified)
system.caches.RequestType.LD.miss_latency_hist_seqr::stdev   282.514397                       (Unspecified)
system.caches.RequestType.LD.miss_latency_hist_seqr |     5831778     88.47%     88.47% |      715893     10.86%     99.32% |        3091      0.05%     99.37% |       12120      0.18%     99.56% |       25219      0.38%     99.94% |        4058      0.06%    100.00% |          15      0.00%    100.00% |           0      0.00%    100.00% |           0      0.00%    100.00% |           0      0.00%    100.00% (Unspecified)
system.caches.RequestType.LD.miss_latency_hist_seqr::total      6592174                       (Unspecified)
system.caches.RequestType.ST.latency_hist_seqr::bucket_size          512                       (Unspecified)
system.caches.RequestType.ST.latency_hist_seqr::max_bucket         5119                       (Unspecified)
system.caches.RequestType.ST.latency_hist_seqr::samples      2043673                       (Unspecified)
system.caches.RequestType.ST.latency_hist_seqr::mean     2.027441                       (Unspecified)
system.caches.RequestType.ST.latency_hist_seqr::gmean     1.016788                       (Unspecified)
system.caches.RequestType.ST.latency_hist_seqr::stdev    25.209023                       (Unspecified)
system.caches.RequestType.ST.latency_hist_seqr |     2042384     99.94%     99.94% |        1215      0.06%    100.00% |           5      0.00%    100.00% |          19      0.00%    100.00% |          42      0.00%    100.00% |           8      0.00%    100.00% |           0      0.00%    100.00% |           0      0.00%    100.00% |           0      0.00%    100.00% |           0      0.00%    100.00% (Unspecified)
system.caches.RequestType.ST.latency_hist_seqr::total      2043673                       (Unspecified)
system.caches.RequestType.ST.hit_latency_hist_seqr::bucket_size          128                       (Unspecified)
system.caches.RequestType.ST.hit_latency_hist_seqr::max_bucket         1279                       (Unspecified)
system.caches.RequestType.ST.hit_latency_hist_seqr::samples      2036751                       (Unspecified)
system.caches.RequestType.ST.hit_latency_hist_seqr::mean     1.003530                       (Unspecified)
system.caches.RequestType.ST.hit_latency_hist_seqr::gmean     1.000524                       (Unspecified)
system.caches.RequestType.ST.hit_latency_hist_seqr::stdev     1.036340                       (Unspecified)
system.caches.RequestType.ST.hit_latency_hist_seqr |     2036736    100.00%    100.00% |           8      0.00%    100.00% |           1      0.00%    100.00% |           3      0.00%    100.00% |           2      0.00%    100.00% |           1      0.00%    100.00% |           0      0.00%    100.00% |           0      0.00%    100.00% |           0      0.00%    100.00% |           0      0.00%    100.00% (Unspecified)
system.caches.RequestType.ST.hit_latency_hist_seqr::total      2036751                       (Unspecified)
system.caches.RequestType.ST.miss_latency_hist_seqr::bucket_size          512                       (Unspecified)
system.caches.RequestType.ST.miss_latency_hist_seqr::max_bucket         5119                       (Unspecified)
system.caches.RequestType.ST.miss_latency_hist_seqr::samples         6922                       (Unspecified)
system.caches.RequestType.ST.miss_latency_hist_seqr::mean   303.306270                       (Unspecified)
system.caches.RequestType.ST.miss_latency_hist_seqr::gmean   116.899213                       (Unspecified)
system.caches.RequestType.ST.miss_latency_hist_seqr::stdev   310.235197                       (Unspecified)
system.caches.RequestType.ST.miss_latency_hist_seqr |        5636     81.42%     81.42% |        1212     17.51%     98.93% |           5      0.07%     99.00% |          19      0.27%     99.28% |          42      0.61%     99.88% |           8      0.12%    100.00% |           0      0.00%    100.00% |           0      0.00%    100.00% |           0      0.00%    100.00% |           0      0.00%    100.00% (Unspecified)
system.caches.RequestType.ST.miss_latency_hist_seqr::total         6922                       (Unspecified)
system.caches.RequestType.IFETCH.latency_hist_seqr::bucket_size          512                       (Unspecified)
system.caches.RequestType.IFETCH.latency_hist_seqr::max_bucket         5119                       (Unspecified)
system.caches.RequestType.IFETCH.latency_hist_seqr::samples     44479122                       (Unspecified)
system.caches.RequestType.IFETCH.latency_hist_seqr::mean     1.038537                       (Unspecified)
system.caches.RequestType.IFETCH.latency_hist_seqr::gmean     1.001407                       (Unspecified)
system.caches.RequestType.IFETCH.latency_hist_seqr::stdev     3.673117                       (Unspecified)
system.caches.RequestType.IFETCH.latency_hist_seqr |    44478773    100.00%    100.00% |         315      0.00%    100.00% |          20      0.00%    100.00% |          11      0.00%    100.00% |           2      0.00%    100.00% |           1      0.00%    100.00% |           0      0.00%    100.00% |           0      0.00%    100.00% |           0      0.00%    100.00% |           0      0.00%    100.00% (Unspecified)
system.caches.RequestType.IFETCH.latency_hist_seqr::total     44479122                       (Unspecified)
[...]
system.o3Cpu7.iew.squashCycles                 583971                       # Number of cycles IEW is squashing (Cycle)
system.o3Cpu7.iew.blockCycles                95606825                       # Number of cycles IEW is blocking (Cycle)
system.o3Cpu7.iew.unblockCycles               1174170                       # Number of cycles IEW is unblocking (Cycle)
system.o3Cpu7.iew.dispatchedInsts           146698116                       # Number of instructions dispatched to IQ (Count)
system.o3Cpu7.iew.dispSquashedInsts              3636                       # Number of squashed instructions skipped by dispatch (Count)
system.o3Cpu7.iew.dispLoadInsts              29341694                       # Number of dispatched load instructions (Count)
system.o3Cpu7.iew.dispStoreInsts              2950966                       # Number of dispatched store instructions (Count)
system.o3Cpu7.iew.dispNonSpecInsts            2056853                       # Number of dispatched non-speculative instructions (Count)
system.o3Cpu7.iew.iqFullEvents                 710960                       # Number of times the IQ has become full, causing a stall (Count)
system.o3Cpu7.iew.lsqFullEvents                138049                       # Number of times the LSQ has become full, causing a stall (Count)
system.o3Cpu7.iew.memOrderViolationEvents       239266                       # Number of memory order violations (Count)
system.o3Cpu7.iew.predictedTakenIncorrect       146910                       # Number of branches that were predicted taken incorrectly (Count)
system.o3Cpu7.iew.predictedNotTakenIncorrect       245893                       # Number of branches that were predicted not taken incorrectly (Count)
system.o3Cpu7.iew.branchMispredicts            392803                       # Number of branch mispredicts detected at execute (Count)
system.o3Cpu7.iew.instsToCommit              84430186                       # Cumulative count of insts sent to commit (Count)
system.o3Cpu7.iew.writebackCount             84327340                       # Cumulative count of insts written-back (Count)
system.o3Cpu7.iew.producerInst               69921976                       # Number of instructions producing a value (Count)
system.o3Cpu7.iew.consumerInst              102405720                       # Number of instructions consuming a value (Count)
system.o3Cpu7.iew.wbRate                     0.602840                       # Insts written-back per cycle ((Count/Cycle))
system.o3Cpu7.iew.wbFanout                   0.682794                       # Average fanout of values written-back ((Count/Count))
system.o3Cpu7.interrupts.clk_domain.clock         3200                       # Clock period in ticks (Tick)
system.o3Cpu7.lsq0.forwLoads                     4085                       # Number of loads that had data forwarded from stores (Count)
system.o3Cpu7.lsq0.squashedLoads             23681265                       # Number of loads squashed (Count)
system.o3Cpu7.lsq0.ignoredResponses                26                       # Number of memory responses ignored because the instruction is squashed (Count)
system.o3Cpu7.lsq0.memOrderViolation           239266                       # Number of memory ordering violations (Count)
system.o3Cpu7.lsq0.squashedStores             2213595                       # Number of stores squashed (Count)
system.o3Cpu7.lsq0.rescheduledLoads                19                       # Number of loads that were rescheduled (Count)
system.o3Cpu7.lsq0.blockedByCache               23612                       # Number of times an access to memory failed due to the cache being blocked (Count)
system.o3Cpu7.lsq0.loadToUse::samples         5660388                       # Distribution of cycle latency between the first time a load is issued and its completion (Unspecified)
system.o3Cpu7.lsq0.loadToUse::mean          23.663111                       # Distribution of cycle latency between the first time a load is issued and its completion (Unspecified)
system.o3Cpu7.lsq0.loadToUse::stdev        109.198302                       # Distribution of cycle latency between the first time a load is issued and its completion (Unspecified)
system.o3Cpu7.lsq0.loadToUse::0-9             5116068     90.38%     90.38% # Distribution of cycle latency between the first time a load is issued and its completion (Unspecified)
system.o3Cpu7.lsq0.loadToUse::10-19            164642      2.91%     93.29% # Distribution of cycle latency between the first time a load is issued and its completion (Unspecified)
system.o3Cpu7.lsq0.loadToUse::20-29            126120      2.23%     95.52% # Distribution of cycle latency between the first time a load is issued and its completion (Unspecified)
system.o3Cpu7.lsq0.loadToUse::30-39             11992      0.21%     95.73% # Distribution of cycle latency between the first time a load is issued and its completion (Unspecified)
system.o3Cpu7.lsq0.loadToUse::40-49              3601      0.06%     95.80% # Distribution of cycle latency between the first time a load is issued and its completion (Unspecified)
system.o3Cpu7.lsq0.loadToUse::50-59              1478      0.03%     95.82% # Distribution of cycle latency between the first time a load is issued and its completion (Unspecified)
system.o3Cpu7.lsq0.loadToUse::60-69               726      0.01%     95.83% # Distribution of cycle latency between the first time a load is issued and its completion (Unspecified)
system.o3Cpu7.lsq0.loadToUse::70-79               526      0.01%     95.84% # Distribution of cycle latency between the first time a load is issued and its completion (Unspecified)
system.o3Cpu7.lsq0.loadToUse::80-89               431      0.01%     95.85% # Distribution of cycle latency between the first time a load is issued and its completion (Unspecified)
system.o3Cpu7.lsq0.loadToUse::90-99               371      0.01%     95.86% # Distribution of cycle latency between the first time a load is issued and its completion (Unspecified)
system.o3Cpu7.lsq0.loadToUse::100-109             344      0.01%     95.86% # Distribution of cycle latency between the first time a load is issued and its completion (Unspecified)
system.o3Cpu7.lsq0.loadToUse::110-119             336      0.01%     95.87% # Distribution of cycle latency between the first time a load is issued and its completion (Unspecified)
system.o3Cpu7.lsq0.loadToUse::120-129             383      0.01%     95.88% # Distribution of cycle latency between the first time a load is issued and its completion (Unspecified)
system.o3Cpu7.lsq0.loadToUse::130-139             378      0.01%     95.88% # Distribution of cycle latency between the first time a load is issued and its completion (Unspecified)
system.o3Cpu7.lsq0.loadToUse::140-149             486      0.01%     95.89% # Distribution of cycle latency between the first time a load is issued and its completion (Unspecified)
system.o3Cpu7.lsq0.loadToUse::150-159             524      0.01%     95.90% # Distribution of cycle latency between the first time a load is issued and its completion (Unspecified)
system.o3Cpu7.lsq0.loadToUse::160-169             633      0.01%     95.91% # Distribution of cycle latency between the first time a load is issued and its completion (Unspecified)
system.o3Cpu7.lsq0.loadToUse::170-179             816      0.01%     95.93% # Distribution of cycle latency between the first time a load is issued and its completion (Unspecified)
system.o3Cpu7.lsq0.loadToUse::180-189            1106      0.02%     95.95% # Distribution of cycle latency between the first time a load is issued and its completion (Unspecified)
system.o3Cpu7.lsq0.loadToUse::190-199            1329      0.02%     95.97% # Distribution of cycle latency between the first time a load is issued and its completion (Unspecified)
system.o3Cpu7.lsq0.loadToUse::200-209            1318      0.02%     95.99% # Distribution of cycle latency between the first time a load is issued and its completion (Unspecified)
system.o3Cpu7.lsq0.loadToUse::210-219            1330      0.02%     96.02% # Distribution of cycle latency between the first time a load is issued and its completion (Unspecified)
system.o3Cpu7.lsq0.loadToUse::220-229            1012      0.02%     96.03% # Distribution of cycle latency between the first time a load is issued and its completion (Unspecified)
system.o3Cpu7.lsq0.loadToUse::230-239             864      0.02%     96.05% # Distribution of cycle latency between the first time a load is issued and its completion (Unspecified)
system.o3Cpu7.lsq0.loadToUse::240-249             788      0.01%     96.06% # Distribution of cycle latency between the first time a load is issued and its completion (Unspecified)
system.o3Cpu7.lsq0.loadToUse::250-259             630      0.01%     96.08% # Distribution of cycle latency between the first time a load is issued and its completion (Unspecified)
system.o3Cpu7.lsq0.loadToUse::260-269             586      0.01%     96.09% # Distribution of cycle latency between the first time a load is issued and its completion (Unspecified)
system.o3Cpu7.lsq0.loadToUse::270-279             602      0.01%     96.10% # Distribution of cycle latency between the first time a load is issued and its completion (Unspecified)
system.o3Cpu7.lsq0.loadToUse::280-289            2057      0.04%     96.13% # Distribution of cycle latency between the first time a load is issued and its completion (Unspecified)
system.o3Cpu7.lsq0.loadToUse::290-299            3364      0.06%     96.19% # Distribution of cycle latency between the first time a load is issued and its completion (Unspecified)
system.o3Cpu7.lsq0.loadToUse::overflows        215547      3.81%    100.00% # Distribution of cycle latency between the first time a load is issued and its completion (Unspecified)
system.o3Cpu7.lsq0.loadToUse::min_value             2                       # Distribution of cycle latency between the first time a load is issued and its completion (Unspecified)
system.o3Cpu7.lsq0.loadToUse::max_value          3121                       # Distribution of cycle latency between the first time a load is issued and its completion (Unspecified)
system.o3Cpu7.lsq0.loadToUse::total           5660388                       # Distribution of cycle latency between the first time a load is issued and its completion (Unspecified)
system.o3Cpu7.mmu.dtb.rdAccesses             10658253                       # TLB accesses on read requests (Count)
system.o3Cpu7.mmu.dtb.wrAccesses               740565                       # TLB accesses on write requests (Count)
system.o3Cpu7.mmu.dtb.rdMisses                 150630                       # TLB misses on read requests (Count)
system.o3Cpu7.mmu.dtb.wrMisses                   1590                       # TLB misses on write requests (Count)
system.o3Cpu7.mmu.dtb.walker.power_state.pwrStateResidencyTicks::UNDEFINED  28990676200                       # Cumulative time (in ticks) in various power states (Tick)
system.o3Cpu7.mmu.itb.rdAccesses                    0                       # TLB accesses on read requests (Count)
system.o3Cpu7.mmu.itb.wrAccesses              5540449                       # TLB accesses on write requests (Count)
system.o3Cpu7.mmu.itb.rdMisses                      0                       # TLB misses on read requests (Count)
system.o3Cpu7.mmu.itb.wrMisses                    138                       # TLB misses on write requests (Count)
system.o3Cpu7.mmu.itb.walker.power_state.pwrStateResidencyTicks::UNDEFINED  28990676200                       # Cumulative time (in ticks) in various power states (Tick)
system.o3Cpu7.power_state.pwrStateResidencyTicks::OFF  28990676200                       # Cumulative time (in ticks) in various power states (Tick)
system.o3Cpu7.rename.squashCycles              583971                       # Number of cycles rename is squashing (Cycle)
system.o3Cpu7.rename.idleCycles               4727467                       # Number of cycles rename is idle (Cycle)
system.o3Cpu7.rename.blockCycles            113285950                       # Number of cycles rename is blocking (Cycle)
system.o3Cpu7.rename.serializeStallCycles       109424                       # count of cycles rename stalled for serializing inst (Cycle)
system.o3Cpu7.rename.runCycles                9672633                       # Number of cycles rename is running (Cycle)
system.o3Cpu7.rename.unblockCycles           11359168                       # Number of cycles rename is unblocking (Cycle)
system.o3Cpu7.rename.renamedInsts           150296484                       # Number of instructions processed by rename (Count)
system.o3Cpu7.rename.ROBFullEvents             124843                       # Number of times rename has blocked due to ROB full (Count)
system.o3Cpu7.rename.IQFullEvents             9976356                       # Number of times rename has blocked due to IQ full (Count)
system.o3Cpu7.rename.LQFullEvents             1005961                       # Number of times rename has blocked due to LQ full (Count)
system.o3Cpu7.rename.SQFullEvents                2580                       # Number of times rename has blocked due to SQ full (Count)
system.o3Cpu7.rename.renamedOperands        273301659                       # Number of destination operands rename has renamed (Count)
system.o3Cpu7.rename.lookups                528395213                       # Number of register rename lookups that rename has made (Count)
system.o3Cpu7.rename.intLookups             183470220                       # Number of integer rename lookups (Count)
system.o3Cpu7.rename.fpLookups                4455728                       # Number of floating rename lookups (Count)
system.o3Cpu7.rename.committedMaps           50535299                       # Number of HB maps that are committed (Count)
system.o3Cpu7.rename.undoneMaps             222766002                       # Number of HB maps that are undone due to squashing (Count)
system.o3Cpu7.rename.serializing                 1398                       # count of serializing insts renamed (Count)
system.o3Cpu7.rename.tempSerializing             1488                       # count of temporary serializing insts renamed (Count)
system.o3Cpu7.rename.skidInsts               33493121                       # count of insts added to the skid buffer (Count)
system.o3Cpu7.rob.reads                     277763810                       # The number of ROB reads (Count)
system.o3Cpu7.rob.writes                    301742092                       # The number of ROB writes (Count)
system.o3Cpu7.thread_0.numInsts              16232631                       # Number of Instructions committed (Count)
system.o3Cpu7.thread_0.numOps                28030685                       # Number of Ops committed (Count)
system.o3Cpu7.thread_0.numMemRefs                   0                       # Number of Memory References (Count)
system.pc.bad_addr.power_state.pwrStateResidencyTicks::UNDEFINED  28990676200                       # Cumulative time (in ticks) in various power states (Tick)
system.pc.com_1.power_state.pwrStateResidencyTicks::UNDEFINED  28990676200                       # Cumulative time (in ticks) in various power states (Tick)
system.pc.default_bus.power_state.pwrStateResidencyTicks::UNDEFINED  28990676200                       # Cumulative time (in ticks) in various power states (Tick)
system.pc.empty_isa.power_state.pwrStateResidencyTicks::UNDEFINED  28990676200                       # Cumulative time (in ticks) in various power states (Tick)
system.pc.fake_com_2.power_state.pwrStateResidencyTicks::UNDEFINED  28990676200                       # Cumulative time (in ticks) in various power states (Tick)
system.pc.fake_com_3.power_state.pwrStateResidencyTicks::UNDEFINED  28990676200                       # Cumulative time (in ticks) in various power states (Tick)
system.pc.fake_com_4.power_state.pwrStateResidencyTicks::UNDEFINED  28990676200                       # Cumulative time (in ticks) in various power states (Tick)
system.pc.fake_floppy.power_state.pwrStateResidencyTicks::UNDEFINED  28990676200                       # Cumulative time (in ticks) in various power states (Tick)
system.pc.pci_host.power_state.pwrStateResidencyTicks::UNDEFINED  28990676200                       # Cumulative time (in ticks) in various power states (Tick)
system.pc.south_bridge.cmos.power_state.pwrStateResidencyTicks::UNDEFINED  28990676200                       # Cumulative time (in ticks) in various power states (Tick)
system.pc.south_bridge.dma1.power_state.pwrStateResidencyTicks::UNDEFINED  28990676200                       # Cumulative time (in ticks) in various power states (Tick)
system.pc.south_bridge.ide.disks0.IdeDisk.dmaReadFullPages            0                       # Number of full page size DMA reads (not PRD). (Count)
system.pc.south_bridge.ide.disks0.IdeDisk.dmaReadBytes            0                       # Number of bytes transfered via DMA reads (not PRD). (Byte)
system.pc.south_bridge.ide.disks0.IdeDisk.dmaReadTxs            0                       # Number of DMA read transactions (not PRD). (Count)
system.pc.south_bridge.ide.disks0.IdeDisk.dmaWriteFullPages            0                       # Number of full page size DMA writes. (Count)
system.pc.south_bridge.ide.disks0.IdeDisk.dmaWriteBytes            0                       # Number of bytes transfered via DMA writes. (Byte)
system.pc.south_bridge.ide.disks0.IdeDisk.dmaWriteTxs            0                       # Number of DMA write transactions. (Count)
system.pc.south_bridge.ide.disks1.IdeDisk.dmaReadFullPages            0                       # Number of full page size DMA reads (not PRD). (Count)
system.pc.south_bridge.ide.disks1.IdeDisk.dmaReadBytes            0                       # Number of bytes transfered via DMA reads (not PRD). (Byte)
system.pc.south_bridge.ide.disks1.IdeDisk.dmaReadTxs            0                       # Number of DMA read transactions (not PRD). (Count)
system.pc.south_bridge.ide.disks1.IdeDisk.dmaWriteFullPages            0                       # Number of full page size DMA writes. (Count)
system.pc.south_bridge.ide.disks1.IdeDisk.dmaWriteBytes            0                       # Number of bytes transfered via DMA writes. (Byte)
system.pc.south_bridge.ide.disks1.IdeDisk.dmaWriteTxs            0                       # Number of DMA write transactions. (Count)
system.pc.south_bridge.ide.power_state.pwrStateResidencyTicks::UNDEFINED  28990676200                       # Cumulative time (in ticks) in various power states (Tick)
system.pc.south_bridge.io_apic.power_state.pwrStateResidencyTicks::UNDEFINED  28990676200                       # Cumulative time (in ticks) in various power states (Tick)
system.pc.south_bridge.keyboard.power_state.pwrStateResidencyTicks::UNDEFINED  28990676200                       # Cumulative time (in ticks) in various power states (Tick)
system.pc.south_bridge.pic1.power_state.pwrStateResidencyTicks::UNDEFINED  28990676200                       # Cumulative time (in ticks) in various power states (Tick)
system.pc.south_bridge.pic2.power_state.pwrStateResidencyTicks::UNDEFINED  28990676200                       # Cumulative time (in ticks) in various power states (Tick)
system.pc.south_bridge.pit.power_state.pwrStateResidencyTicks::UNDEFINED  28990676200                       # Cumulative time (in ticks) in various power states (Tick)
system.pc.south_bridge.speaker.power_state.pwrStateResidencyTicks::UNDEFINED  28990676200                       # Cumulative time (in ticks) in various power states (Tick)
system.workload.inst.arm                            0                       # number of arm instructions executed (Count)
system.workload.inst.quiesce                        0                       # number of quiesce instructions executed (Count)

---------- End Simulation Statistics   ----------
