
---------- Begin Simulation Statistics ----------
simSeconds                                   0.070115                       # Number of seconds simulated (Second)
simTicks                                  70114913900                       # Number of ticks simulated (Tick)
finalTick                                163578116632600                       # Number of ticks from beginning of simulation (restored from checkpoints and never reset) (Tick)
simFreq                                  1000000000000                       # The number of ticks per simulated second ((Tick/Second))
hostSeconds                                  11908.63                       # Real time elapsed on the host (Second)
hostTickRate                                  5887738                       # The number of ticks simulated per host second (ticks/s) ((Tick/Second))
hostMemory                                   20016752                       # Number of bytes of host memory used (Byte)
simInsts                                    286213613                       # Number of instructions simulated (Count)
simOps                                      475875142                       # Number of ops (including micro ops) simulated (Count)
hostInstRate                                    24034                       # Simulator instruction rate (inst/s) ((Count/Second))
hostOpRate                                      39961                       # Simulator op (including micro ops) rate (op/s) ((Count/Second))
system.caches.delayHistogram::bucket_size          512                       # delay histogram for all message (Unspecified)
system.caches.delayHistogram::max_bucket         5119                       # delay histogram for all message (Unspecified)
system.caches.delayHistogram::samples        46056628                       # delay histogram for all message (Unspecified)
system.caches.delayHistogram::mean           0.538868                       # delay histogram for all message (Unspecified)
system.caches.delayHistogram::stdev          2.290512                       # delay histogram for all message (Unspecified)
system.caches.delayHistogram             |    46056609    100.00%    100.00% |           5      0.00%    100.00% |           6      0.00%    100.00% |           6      0.00%    100.00% |           1      0.00%    100.00% |           1      0.00%    100.00% |           0      0.00%    100.00% |           0      0.00%    100.00% |           0      0.00%    100.00% |           0      0.00%    100.00% # delay histogram for all message (Unspecified)
system.caches.delayHistogram::total          46056628                       # delay histogram for all message (Unspecified)
system.caches.m_outstandReqHistSeqr::bucket_size            2                       (Unspecified)
system.caches.m_outstandReqHistSeqr::max_bucket           19                       (Unspecified)
system.caches.m_outstandReqHistSeqr::samples    140416285                       (Unspecified)
system.caches.m_outstandReqHistSeqr::mean     4.317799                       (Unspecified)
system.caches.m_outstandReqHistSeqr::gmean     2.518270                       (Unspecified)
system.caches.m_outstandReqHistSeqr::stdev     4.794993                       (Unspecified)
system.caches.m_outstandReqHistSeqr      |    61546887     43.83%     43.83% |    30451821     21.69%     65.52% |    13069140      9.31%     74.83% |     6973160      4.97%     79.79% |     4156904      2.96%     82.75% |     4062500      2.89%     85.65% |     7107810      5.06%     90.71% |     4269149      3.04%     93.75% |     8778914      6.25%    100.00% |           0      0.00%    100.00% (Unspecified)
system.caches.m_outstandReqHistSeqr::total    140416285                       (Unspecified)
system.caches.m_latencyHistSeqr::bucket_size         1024                       (Unspecified)
system.caches.m_latencyHistSeqr::max_bucket        10239                       (Unspecified)
system.caches.m_latencyHistSeqr::samples    140712733                       (Unspecified)
system.caches.m_latencyHistSeqr::mean       47.445140                       (Unspecified)
system.caches.m_latencyHistSeqr::gmean       1.385595                       (Unspecified)
system.caches.m_latencyHistSeqr::stdev     239.602528                       (Unspecified)
system.caches.m_latencyHistSeqr          |   138130878     98.17%     98.17% |     2256825      1.60%     99.77% |      287726      0.20%     99.97% |       34656      0.02%    100.00% |        2482      0.00%    100.00% |         158      0.00%    100.00% |           8      0.00%    100.00% |           0      0.00%    100.00% |           0      0.00%    100.00% |           0      0.00%    100.00% (Unspecified)
system.caches.m_latencyHistSeqr::total      140712733                       (Unspecified)
system.caches.m_hitLatencyHistSeqr::bucket_size          512                       (Unspecified)
system.caches.m_hitLatencyHistSeqr::max_bucket         5119                       (Unspecified)
system.caches.m_hitLatencyHistSeqr::samples    134058380                       (Unspecified)
system.caches.m_hitLatencyHistSeqr::mean     1.016928                       (Unspecified)
system.caches.m_hitLatencyHistSeqr::gmean     1.008267                       (Unspecified)
system.caches.m_hitLatencyHistSeqr::stdev     2.390926                       (Unspecified)
system.caches.m_hitLatencyHistSeqr       |   134057818    100.00%    100.00% |         336      0.00%    100.00% |         142      0.00%    100.00% |          53      0.00%    100.00% |          25      0.00%    100.00% |           6      0.00%    100.00% |           0      0.00%    100.00% |           0      0.00%    100.00% |           0      0.00%    100.00% |           0      0.00%    100.00% (Unspecified)
system.caches.m_hitLatencyHistSeqr::total    134058380                       (Unspecified)
system.caches.m_missLatencyHistSeqr::bucket_size         1024                       (Unspecified)
system.caches.m_missLatencyHistSeqr::max_bucket        10239                       (Unspecified)
system.caches.m_missLatencyHistSeqr::samples      6654353                       (Unspecified)
system.caches.m_missLatencyHistSeqr::mean   982.786405                       (Unspecified)
system.caches.m_missLatencyHistSeqr::gmean   837.539935                       (Unspecified)
system.caches.m_missLatencyHistSeqr::stdev   543.665404                       (Unspecified)
system.caches.m_missLatencyHistSeqr      |     4072724     61.20%     61.20% |     2256630     33.91%     95.12% |      287695      4.32%     99.44% |       34656      0.52%     99.96% |        2482      0.04%    100.00% |         158      0.00%    100.00% |           8      0.00%    100.00% |           0      0.00%    100.00% |           0      0.00%    100.00% |           0      0.00%    100.00% (Unspecified)
system.caches.m_missLatencyHistSeqr::total      6654353                       (Unspecified)
system.caches.delayVCHist.vnet_0::bucket_size          512                       # delay histogram for vnet_0 (Unspecified)
system.caches.delayVCHist.vnet_0::max_bucket         5119                       # delay histogram for vnet_0 (Unspecified)
system.caches.delayVCHist.vnet_0::samples     19717825                       # delay histogram for vnet_0 (Unspecified)
system.caches.delayVCHist.vnet_0::mean       1.169762                       # delay histogram for vnet_0 (Unspecified)
system.caches.delayVCHist.vnet_0::stdev      3.299212                       # delay histogram for vnet_0 (Unspecified)
system.caches.delayVCHist.vnet_0         |    19717806    100.00%    100.00% |           5      0.00%    100.00% |           6      0.00%    100.00% |           6      0.00%    100.00% |           1      0.00%    100.00% |           1      0.00%    100.00% |           0      0.00%    100.00% |           0      0.00%    100.00% |           0      0.00%    100.00% |           0      0.00%    100.00% # delay histogram for vnet_0 (Unspecified)
system.caches.delayVCHist.vnet_0::total      19717825                       # delay histogram for vnet_0 (Unspecified)
system.caches.delayVCHist.vnet_1::bucket_size            8                       # delay histogram for vnet_1 (Unspecified)
system.caches.delayVCHist.vnet_1::max_bucket           79                       # delay histogram for vnet_1 (Unspecified)
system.caches.delayVCHist.vnet_1::samples     26234851                       # delay histogram for vnet_1 (Unspecified)
system.caches.delayVCHist.vnet_1::mean       0.066827                       # delay histogram for vnet_1 (Unspecified)
system.caches.delayVCHist.vnet_1::stdev      0.711605                       # delay histogram for vnet_1 (Unspecified)
system.caches.delayVCHist.vnet_1         |    26125810     99.58%     99.58% |      106879      0.41%     99.99% |        1486      0.01%    100.00% |         493      0.00%    100.00% |         140      0.00%    100.00% |          41      0.00%    100.00% |           2      0.00%    100.00% |           0      0.00%    100.00% |           0      0.00%    100.00% |           0      0.00%    100.00% # delay histogram for vnet_1 (Unspecified)
system.caches.delayVCHist.vnet_1::total      26234851                       # delay histogram for vnet_1 (Unspecified)
system.caches.delayVCHist.vnet_2::bucket_size            1                       # delay histogram for vnet_2 (Unspecified)
system.caches.delayVCHist.vnet_2::max_bucket            9                       # delay histogram for vnet_2 (Unspecified)
system.caches.delayVCHist.vnet_2::samples       103952                       # delay histogram for vnet_2 (Unspecified)
system.caches.delayVCHist.vnet_2::mean       0.000712                       # delay histogram for vnet_2 (Unspecified)
system.caches.delayVCHist.vnet_2::stdev      0.040671                       # delay histogram for vnet_2 (Unspecified)
system.caches.delayVCHist.vnet_2         |      103918     99.97%     99.97% |           0      0.00%     99.97% |          31      0.03%    100.00% |           0      0.00%    100.00% |           3      0.00%    100.00% |           0      0.00%    100.00% |           0      0.00%    100.00% |           0      0.00%    100.00% |           0      0.00%    100.00% |           0      0.00%    100.00% # delay histogram for vnet_2 (Unspecified)
system.caches.delayVCHist.vnet_2::total        103952                       # delay histogram for vnet_2 (Unspecified)
system.caches.L1Cache_Controller.Load    |     5914301     12.28%     12.28% |     5821969     12.09%     24.38% |     5887856     12.23%     36.61% |     6016004     12.50%     49.10% |     6209257     12.90%     62.00% |     5742812     11.93%     73.93% |     6239073     12.96%     86.89% |     6311907     13.11%    100.00% (Unspecified)
system.caches.L1Cache_Controller.Load::total     48143179                       (Unspecified)
system.caches.L1Cache_Controller.Ifetch  |     2815051     12.36%     12.36% |     2770278     12.16%     24.52% |     2804496     12.31%     36.84% |     2953868     12.97%     49.80% |     2896996     12.72%     62.52% |     2758747     12.11%     74.64% |     2876160     12.63%     87.26% |     2900957     12.74%    100.00% (Unspecified)
system.caches.L1Cache_Controller.Ifetch::total     22776553                       (Unspecified)
system.caches.L1Cache_Controller.Store   |     8692666     12.45%     12.45% |     8610012     12.34%     24.79% |     8678868     12.44%     37.23% |     8891622     12.74%     49.97% |     8788018     12.59%     62.56% |     8590812     12.31%     74.87% |     8749847     12.54%     87.40% |     8791166     12.60%    100.00% (Unspecified)
system.caches.L1Cache_Controller.Store::total     69793011                       (Unspecified)
system.caches.L1Cache_Controller.Inv     |       11287     11.34%     11.34% |       12707     12.77%     24.11% |       11317     11.37%     35.48% |       12133     12.19%     47.67% |       14223     14.29%     61.96% |       12002     12.06%     74.02% |       11317     11.37%     85.40% |       14534     14.60%    100.00% (Unspecified)
system.caches.L1Cache_Controller.Inv::total        99520                       (Unspecified)
system.caches.L1Cache_Controller.L1_Replacement |      826832     12.63%     12.63% |      815966     12.47%     25.10% |      816922     12.48%     37.58% |      822239     12.56%     50.14% |      816077     12.47%     62.61% |      815763     12.46%     75.08% |      816086     12.47%     87.55% |      815126     12.45%    100.00% (Unspecified)
system.caches.L1Cache_Controller.L1_Replacement::total      6545011                       (Unspecified)
system.caches.L1Cache_Controller.Fwd_GETX |          27     13.04%     13.04% |          28     13.53%     26.57% |          27     13.04%     39.61% |          20      9.66%     49.28% |          19      9.18%     58.45% |          25     12.08%     70.53% |          32     15.46%     85.99% |          29     14.01%    100.00% (Unspecified)
system.caches.L1Cache_Controller.Fwd_GETX::total          207                       (Unspecified)
system.caches.L1Cache_Controller.Fwd_GETS |        1390     32.90%     32.90% |         340      8.05%     40.95% |         251      5.94%     46.89% |         380      8.99%     55.88% |         516     12.21%     68.09% |         226      5.35%     73.44% |         394      9.33%     82.77% |         728     17.23%    100.00% (Unspecified)
system.caches.L1Cache_Controller.Fwd_GETS::total         4225                       (Unspecified)
system.caches.L1Cache_Controller.Data    |          69     88.46%     88.46% |           0      0.00%     88.46% |           0      0.00%     88.46% |           0      0.00%     88.46% |           9     11.54%    100.00% |           0      0.00%    100.00% |           0      0.00%    100.00% |           0      0.00%    100.00% (Unspecified)
system.caches.L1Cache_Controller.Data::total           78                       (Unspecified)
system.caches.L1Cache_Controller.Data_Exclusive |      570152     12.51%     12.51% |      568748     12.48%     24.98% |      569015     12.48%     37.46% |      575786     12.63%     50.09% |      569275     12.49%     62.58% |      567331     12.44%     75.03% |      569188     12.49%     87.51% |      569250     12.49%    100.00% (Unspecified)
system.caches.L1Cache_Controller.Data_Exclusive::total      4558745                       (Unspecified)
system.caches.L1Cache_Controller.DataS_fromL1 |         509     12.05%     12.05% |         817     19.34%     31.38% |         603     14.27%     45.66% |         571     13.51%     59.17% |         252      5.96%     65.14% |         545     12.90%     78.04% |         577     13.66%     91.69% |         351      8.31%    100.00% (Unspecified)
system.caches.L1Cache_Controller.DataS_fromL1::total         4225                       (Unspecified)
system.caches.L1Cache_Controller.Data_all_Acks |      263216     12.59%     12.59% |      260689     12.47%     25.06% |      261764     12.52%     37.58% |      260279     12.45%     50.03% |      261472     12.51%     62.53% |      262164     12.54%     75.07% |      260925     12.48%     87.55% |      260262     12.45%    100.00% (Unspecified)
system.caches.L1Cache_Controller.Data_all_Acks::total      2090771                       (Unspecified)
system.caches.L1Cache_Controller.Ack     |        2132     88.17%     88.17% |          21      0.87%     89.04% |          13      0.54%     89.58% |          44      1.82%     91.40% |         121      5.00%     96.40% |          17      0.70%     97.11% |          20      0.83%     97.93% |          50      2.07%    100.00% (Unspecified)
system.caches.L1Cache_Controller.Ack::total         2418                       (Unspecified)
system.caches.L1Cache_Controller.Ack_all |         444     72.55%     72.55% |          15      2.45%     75.00% |          13      2.12%     77.12% |          31      5.07%     82.19% |          46      7.52%     89.71% |          17      2.78%     92.48% |          20      3.27%     95.75% |          26      4.25%    100.00% (Unspecified)
system.caches.L1Cache_Controller.Ack_all::total          612                       (Unspecified)
system.caches.L1Cache_Controller.WB_Ack  |      819731     12.65%     12.65% |      807375     12.46%     25.12% |      809586     12.50%     37.61% |      814203     12.57%     50.18% |      806040     12.44%     62.63% |      807629     12.47%     75.09% |      808795     12.49%     87.58% |      804653     12.42%    100.00% (Unspecified)
system.caches.L1Cache_Controller.WB_Ack::total      6478012                       (Unspecified)
system.caches.L1Cache_Controller.NP.Load |      571881     12.50%     12.50% |      570391     12.47%     24.98% |      570907     12.48%     37.46% |      577749     12.63%     50.09% |      570892     12.48%     62.57% |      569240     12.45%     75.02% |      571324     12.49%     87.51% |      571084     12.49%    100.00% (Unspecified)
system.caches.L1Cache_Controller.NP.Load::total      4573468                       (Unspecified)
system.caches.L1Cache_Controller.NP.Ifetch |        2132     15.58%     15.58% |        1302      9.51%     25.09% |        1596     11.66%     36.76% |        1373     10.03%     46.79% |        2064     15.08%     61.87% |        1535     11.22%     73.09% |        1797     13.13%     86.22% |        1886     13.78%    100.00% (Unspecified)
system.caches.L1Cache_Controller.NP.Ifetch::total        13685                       (Unspecified)
system.caches.L1Cache_Controller.NP.Store |      253425     12.55%     12.55% |      252943     12.53%     25.08% |      253096     12.53%     37.61% |      251709     12.47%     50.08% |      251844     12.47%     62.55% |      253654     12.56%     75.12% |      251638     12.46%     87.58% |      250822     12.42%    100.00% (Unspecified)
system.caches.L1Cache_Controller.NP.Store::total      2019131                       (Unspecified)
system.caches.L1Cache_Controller.NP.Inv  |        1502     15.55%     15.55% |         958      9.92%     25.46% |        1110     11.49%     36.95% |        1124     11.63%     48.59% |        1087     11.25%     59.84% |        1123     11.62%     71.46% |        1370     14.18%     85.64% |        1387     14.36%    100.00% (Unspecified)
system.caches.L1Cache_Controller.NP.Inv::total         9661                       (Unspecified)
system.caches.L1Cache_Controller.I.Load  |        1300     11.61%     11.61% |        1437     12.83%     24.43% |        1442     12.87%     37.31% |        1423     12.70%     50.01% |        1415     12.63%     62.64% |        1376     12.28%     74.92% |        1404     12.53%     87.46% |        1405     12.54%    100.00% (Unspecified)
system.caches.L1Cache_Controller.I.Load::total        11202                       (Unspecified)
system.caches.L1Cache_Controller.I.Ifetch |        4788     14.28%     14.28% |        3842     11.46%     25.74% |        3999     11.93%     37.67% |        4024     12.00%     49.67% |        4461     13.31%     62.98% |        3930     11.72%     74.70% |        4166     12.43%     87.13% |        4314     12.87%    100.00% (Unspecified)
system.caches.L1Cache_Controller.I.Ifetch::total        33524                       (Unspecified)
system.caches.L1Cache_Controller.I.Store |         423     15.01%     15.01% |         340     12.06%     27.07% |         344     12.20%     39.27% |         359     12.74%     52.00% |         333     11.81%     63.82% |         305     10.82%     74.64% |         362     12.84%     87.48% |         353     12.52%    100.00% (Unspecified)
system.caches.L1Cache_Controller.I.Store::total         2819                       (Unspecified)
system.caches.L1Cache_Controller.I.L1_Replacement |        2575      7.01%      7.01% |        5441     14.81%     21.81% |        3724     10.13%     31.95% |        4493     12.23%     44.17% |        6283     17.10%     61.27% |        4576     12.45%     73.72% |        3296      8.97%     82.69% |        6361     17.31%    100.00% (Unspecified)
system.caches.L1Cache_Controller.I.L1_Replacement::total        36749                       (Unspecified)
system.caches.L1Cache_Controller.S.Load  |     1533140     12.10%     12.10% |     1560759     12.32%     24.42% |     1583704     12.50%     36.93% |     1475422     11.65%     48.57% |     1737133     13.71%     62.29% |     1241240      9.80%     72.08% |     1886963     14.90%     86.98% |     1649401     13.02%    100.00% (Unspecified)
system.caches.L1Cache_Controller.S.Load::total     12667762                       (Unspecified)
system.caches.L1Cache_Controller.S.Ifetch |     2808131     12.35%     12.35% |     2765134     12.17%     24.52% |     2798901     12.31%     36.83% |     2948471     12.97%     49.81% |     2890471     12.72%     62.52% |     2753282     12.11%     74.64% |     2870197     12.63%     87.26% |     2894757     12.74%    100.00% (Unspecified)
system.caches.L1Cache_Controller.S.Ifetch::total     22729344                       (Unspecified)
system.caches.L1Cache_Controller.S.Store |         375     70.22%     70.22% |          15      2.81%     73.03% |          13      2.43%     75.47% |          31      5.81%     81.27% |          37      6.93%     88.20% |          17      3.18%     91.39% |          20      3.75%     95.13% |          26      4.87%    100.00% (Unspecified)
system.caches.L1Cache_Controller.S.Store::total          534                       (Unspecified)
system.caches.L1Cache_Controller.S.Inv   |        6010     13.55%     13.55% |        5234     11.80%     25.35% |        5370     12.11%     37.45% |        5294     11.93%     49.39% |        6000     13.53%     62.92% |        5239     11.81%     74.73% |        5531     12.47%     87.20% |        5680     12.80%    100.00% (Unspecified)
system.caches.L1Cache_Controller.S.Inv::total        44358                       (Unspecified)
system.caches.L1Cache_Controller.S.L1_Replacement |        4526     14.97%     14.97% |        3148     10.41%     25.38% |        3612     11.94%     37.32% |        3542     11.71%     49.03% |        3751     12.40%     61.44% |        3556     11.76%     73.20% |        3995     13.21%     86.41% |        4110     13.59%    100.00% (Unspecified)
system.caches.L1Cache_Controller.S.L1_Replacement::total        30240                       (Unspecified)
system.caches.L1Cache_Controller.E.Load  |     1986783     12.24%     12.24% |     1918178     11.82%     24.06% |     1925659     11.86%     35.93% |     2055150     12.66%     48.59% |     2033578     12.53%     61.12% |     2161116     13.32%     74.43% |     1929505     11.89%     86.32% |     2219862     13.68%    100.00% (Unspecified)
system.caches.L1Cache_Controller.E.Load::total     16229831                       (Unspecified)
system.caches.L1Cache_Controller.E.Store |       74916     12.58%     12.58% |       74453     12.50%     25.07% |       74535     12.51%     37.59% |       75666     12.70%     50.29% |       73927     12.41%     62.70% |       73971     12.42%     75.12% |       74161     12.45%     87.57% |       74075     12.43%    100.00% (Unspecified)
system.caches.L1Cache_Controller.E.Store::total       595704                       (Unspecified)
system.caches.L1Cache_Controller.E.Inv   |        2211      8.60%      8.60% |        4692     18.25%     26.84% |        3177     12.35%     39.20% |        4065     15.81%     55.00% |        3095     12.04%     67.04% |        2862     11.13%     78.17% |        1988      7.73%     85.90% |        3626     14.10%    100.00% (Unspecified)
system.caches.L1Cache_Controller.E.Inv::total        25716                       (Unspecified)
system.caches.L1Cache_Controller.E.L1_Replacement |      484308     12.42%     12.42% |      485444     12.45%     24.87% |      487254     12.50%     37.36% |      491961     12.62%     49.98% |      488067     12.52%     62.50% |      486438     12.47%     74.97% |      488991     12.54%     87.51% |      487061     12.49%    100.00% (Unspecified)
system.caches.L1Cache_Controller.E.L1_Replacement::total      3899524                       (Unspecified)
system.caches.L1Cache_Controller.E.Fwd_GETX |           8     14.04%     14.04% |           8     14.04%     28.07% |           7     12.28%     40.35% |           7     12.28%     52.63% |           2      3.51%     56.14% |           7     12.28%     68.42% |           8     14.04%     82.46% |          10     17.54%    100.00% (Unspecified)
system.caches.L1Cache_Controller.E.Fwd_GETX::total           57                       (Unspecified)
system.caches.L1Cache_Controller.E.Fwd_GETS |         948     26.63%     26.63% |         329      9.24%     35.87% |         243      6.83%     42.70% |         349      9.80%     52.50% |         397     11.15%     63.65% |         214      6.01%     69.66% |         377     10.59%     80.25% |         703     19.75%    100.00% (Unspecified)
system.caches.L1Cache_Controller.E.Fwd_GETS::total         3560                       (Unspecified)
system.caches.L1Cache_Controller.M.Load  |     1821197     12.42%     12.42% |     1771204     12.08%     24.50% |     1806144     12.32%     36.82% |     1906260     13.00%     49.83% |     1866239     12.73%     62.55% |     1769840     12.07%     74.63% |     1849877     12.62%     87.24% |     1870155     12.76%    100.00% (Unspecified)
system.caches.L1Cache_Controller.M.Load::total     14660916                       (Unspecified)
system.caches.L1Cache_Controller.M.Store |     8363527     12.45%     12.45% |     8282261     12.33%     24.78% |     8350880     12.43%     37.21% |     8563857     12.75%     49.96% |     8461877     12.60%     62.56% |     8262865     12.30%     74.86% |     8423666     12.54%     87.40% |     8465890     12.60%    100.00% (Unspecified)
system.caches.L1Cache_Controller.M.Store::total     67174823                       (Unspecified)
system.caches.L1Cache_Controller.M.Inv   |        1564      7.92%      7.92% |        1816      9.20%     17.12% |        1644      8.33%     25.45% |        1640      8.31%     33.76% |        4037     20.45%     54.21% |        2776     14.06%     68.27% |        2424     12.28%     80.55% |        3839     19.45%    100.00% (Unspecified)
system.caches.L1Cache_Controller.M.Inv::total        19740                       (Unspecified)
system.caches.L1Cache_Controller.M.L1_Replacement |      335423     13.01%     13.01% |      321931     12.49%     25.49% |      322332     12.50%     37.99% |      322242     12.50%     50.49% |      317973     12.33%     62.82% |      321191     12.46%     75.28% |      319804     12.40%     87.68% |      317592     12.32%    100.00% (Unspecified)
system.caches.L1Cache_Controller.M.L1_Replacement::total      2578488                       (Unspecified)
system.caches.L1Cache_Controller.M.Fwd_GETX |          19     12.67%     12.67% |          20     13.33%     26.00% |          20     13.33%     39.33% |          13      8.67%     48.00% |          17     11.33%     59.33% |          18     12.00%     71.33% |          24     16.00%     87.33% |          19     12.67%    100.00% (Unspecified)
system.caches.L1Cache_Controller.M.Fwd_GETX::total          150                       (Unspecified)
system.caches.L1Cache_Controller.M.Fwd_GETS |         442     66.47%     66.47% |          11      1.65%     68.12% |           8      1.20%     69.32% |          31      4.66%     73.98% |         119     17.89%     91.88% |          12      1.80%     93.68% |          17      2.56%     96.24% |          25      3.76%    100.00% (Unspecified)
system.caches.L1Cache_Controller.M.Fwd_GETS::total          665                       (Unspecified)
system.caches.L1Cache_Controller.IS.Inv  |           0      0.00%      0.00% |           7     15.56%     15.56% |          16     35.56%     51.11% |          10     22.22%     73.33% |           4      8.89%     82.22% |           2      4.44%     86.67% |           4      8.89%     95.56% |           2      4.44%    100.00% (Unspecified)
system.caches.L1Cache_Controller.IS.Inv::total           45                       (Unspecified)
system.caches.L1Cache_Controller.IS.L1_Replacement |           0      0.00%      0.00% |           2     20.00%     20.00% |           0      0.00%     20.00% |           1     10.00%     30.00% |           3     30.00%     60.00% |           2     20.00%     80.00% |           0      0.00%     80.00% |           2     20.00%    100.00% (Unspecified)
system.caches.L1Cache_Controller.IS.L1_Replacement::total           10                       (Unspecified)
system.caches.L1Cache_Controller.IS.Data_Exclusive |      570152     12.51%     12.51% |      568748     12.48%     24.98% |      569015     12.48%     37.46% |      575786     12.63%     50.09% |      569275     12.49%     62.58% |      567331     12.44%     75.03% |      569188     12.49%     87.51% |      569250     12.49%    100.00% (Unspecified)
system.caches.L1Cache_Controller.IS.Data_Exclusive::total      4558745                       (Unspecified)
system.caches.L1Cache_Controller.IS.DataS_fromL1 |         509     12.05%     12.05% |         816     19.32%     31.37% |         603     14.28%     45.64% |         571     13.52%     59.16% |         252      5.97%     65.13% |         545     12.90%     78.03% |         577     13.66%     91.69% |         351      8.31%    100.00% (Unspecified)
system.caches.L1Cache_Controller.IS.DataS_fromL1::total         4224                       (Unspecified)
system.caches.L1Cache_Controller.IS.Data_all_Acks |        9437     13.70%     13.70% |        7401     10.75%     24.45% |        8308     12.07%     36.52% |        8202     11.91%     48.43% |        9301     13.51%     61.94% |        8203     11.91%     73.85% |        8922     12.96%     86.81% |        9085     13.19%    100.00% (Unspecified)
system.caches.L1Cache_Controller.IS.Data_all_Acks::total        68859                       (Unspecified)
system.caches.L1Cache_Controller.IM.Data |          69     88.46%     88.46% |           0      0.00%     88.46% |           0      0.00%     88.46% |           0      0.00%     88.46% |           9     11.54%    100.00% |           0      0.00%    100.00% |           0      0.00%    100.00% |           0      0.00%    100.00% (Unspecified)
system.caches.L1Cache_Controller.IM.Data::total           78                       (Unspecified)
system.caches.L1Cache_Controller.IM.Data_all_Acks |      253779     12.55%     12.55% |      253282     12.53%     25.08% |      253440     12.53%     37.61% |      252067     12.47%     50.08% |      252167     12.47%     62.55% |      253959     12.56%     75.11% |      251999     12.46%     87.58% |      251175     12.42%    100.00% (Unspecified)
system.caches.L1Cache_Controller.IM.Data_all_Acks::total      2021868                       (Unspecified)
system.caches.L1Cache_Controller.SM.Ack  |        2132     88.17%     88.17% |          21      0.87%     89.04% |          13      0.54%     89.58% |          44      1.82%     91.40% |         121      5.00%     96.40% |          17      0.70%     97.11% |          20      0.83%     97.93% |          50      2.07%    100.00% (Unspecified)
system.caches.L1Cache_Controller.SM.Ack::total         2418                       (Unspecified)
system.caches.L1Cache_Controller.SM.Ack_all |         444     72.55%     72.55% |          15      2.45%     75.00% |          13      2.12%     77.12% |          31      5.07%     82.19% |          46      7.52%     89.71% |          17      2.78%     92.48% |          20      3.27%     95.75% |          26      4.25%    100.00% (Unspecified)
system.caches.L1Cache_Controller.SM.Ack_all::total          612                       (Unspecified)
system.caches.L1Cache_Controller.IS_I.DataS_fromL1 |           0      0.00%      0.00% |           1    100.00%    100.00% |           0      0.00%    100.00% |           0      0.00%    100.00% |           0      0.00%    100.00% |           0      0.00%    100.00% |           0      0.00%    100.00% |           0      0.00%    100.00% (Unspecified)
system.caches.L1Cache_Controller.IS_I.DataS_fromL1::total            1                       (Unspecified)
system.caches.L1Cache_Controller.IS_I.Data_all_Acks |           0      0.00%      0.00% |           6     13.64%     13.64% |          16     36.36%     50.00% |          10     22.73%     72.73% |           4      9.09%     81.82% |           2      4.55%     86.36% |           4      9.09%     95.45% |           2      4.55%    100.00% (Unspecified)
system.caches.L1Cache_Controller.IS_I.Data_all_Acks::total           44                       (Unspecified)
system.caches.L1Cache_Controller.M_I.WB_Ack |      819731     12.65%     12.65% |      807375     12.46%     25.12% |      809586     12.50%     37.61% |      814203     12.57%     50.18% |      806040     12.44%     62.63% |      807629     12.47%     75.09% |      808795     12.49%     87.58% |      804653     12.42%    100.00% (Unspecified)
system.caches.L1Cache_Controller.M_I.WB_Ack::total      6478012                       (Unspecified)
system.caches.Directory_Controller.Fetch |        6052      0.09%      0.09% |     6558860     99.91%    100.00% (Unspecified)
system.caches.Directory_Controller.Fetch::total      6564912                       (Unspecified)
system.caches.Directory_Controller.Data  |         235      0.01%      0.01% |     2578775     99.99%    100.00% (Unspecified)
system.caches.Directory_Controller.Data::total      2579010                       (Unspecified)
system.caches.Directory_Controller.Memory_Data |        6052      0.09%      0.09% |     6558850     99.91%    100.00% (Unspecified)
system.caches.Directory_Controller.Memory_Data::total      6564902                       (Unspecified)
system.caches.Directory_Controller.Memory_Ack |         235      0.01%      0.01% |     2578775     99.99%    100.00% (Unspecified)
system.caches.Directory_Controller.Memory_Ack::total      2579010                       (Unspecified)
system.caches.Directory_Controller.CleanReplacement |        5789      0.15%      0.15% |     3849041     99.85%    100.00% (Unspecified)
system.caches.Directory_Controller.CleanReplacement::total      3854830                       (Unspecified)
system.caches.Directory_Controller.I.Fetch |        6052      0.09%      0.09% |     6558860     99.91%    100.00% (Unspecified)
system.caches.Directory_Controller.I.Fetch::total      6564912                       (Unspecified)
system.caches.Directory_Controller.M.Data |         235      0.01%      0.01% |     2578775     99.99%    100.00% (Unspecified)
system.caches.Directory_Controller.M.Data::total      2579010                       (Unspecified)
system.caches.Directory_Controller.M.CleanReplacement |        5789      0.15%      0.15% |     3849041     99.85%    100.00% (Unspecified)
system.caches.Directory_Controller.M.CleanReplacement::total      3854830                       (Unspecified)
system.caches.Directory_Controller.IM.Memory_Data |        6052      0.09%      0.09% |     6558850     99.91%    100.00% (Unspecified)
system.caches.Directory_Controller.IM.Memory_Data::total      6564902                       (Unspecified)
system.caches.Directory_Controller.MI.Memory_Ack |         235      0.01%      0.01% |     2578775     99.99%    100.00% (Unspecified)
system.caches.Directory_Controller.MI.Memory_Ack::total      2579010                       (Unspecified)
system.caches.L2Cache_Controller.L1_GET_INSTR |        6039     12.79%     12.79% |        7297     15.45%     28.24% |        5458     11.56%     39.80% |        4386      9.29%     49.09% |        5708     12.09%     61.18% |        5709     12.09%     73.27% |        5851     12.39%     85.66% |        6772     14.34%    100.00% (Unspecified)
system.caches.L2Cache_Controller.L1_GET_INSTR::total        47220                       (Unspecified)
system.caches.L2Cache_Controller.L1_GETS |      575175     12.54%     12.54% |      573300     12.50%     25.05% |      572748     12.49%     37.54% |      572483     12.48%     50.02% |      572390     12.48%     62.50% |      573071     12.50%     75.00% |      572973     12.50%     87.50% |      573248     12.50%    100.00% (Unspecified)
system.caches.L2Cache_Controller.L1_GETS::total      4585388                       (Unspecified)
system.caches.L2Cache_Controller.L1_GETX |      253009     12.51%     12.51% |      252688     12.50%     25.01% |      252088     12.47%     37.48% |      252430     12.48%     49.96% |      252779     12.50%     62.46% |      253275     12.53%     74.99% |      252758     12.50%     87.49% |      253017     12.51%    100.00% (Unspecified)
system.caches.L2Cache_Controller.L1_GETX::total      2022044                       (Unspecified)
system.caches.L2Cache_Controller.L1_UPGRADE |         106     18.00%     18.00% |          78     13.24%     31.24% |          51      8.66%     39.90% |          13      2.21%     42.11% |          49      8.32%     50.42% |          18      3.06%     53.48% |         262     44.48%     97.96% |          12      2.04%    100.00% (Unspecified)
system.caches.L2Cache_Controller.L1_UPGRADE::total          589                       (Unspecified)
system.caches.L2Cache_Controller.L1_PUTX |      809593     12.50%     12.50% |      809817     12.50%     25.00% |      809012     12.49%     37.49% |      809611     12.50%     49.98% |      809951     12.50%     62.49% |      810507     12.51%     75.00% |      809705     12.50%     87.50% |      809816     12.50%    100.00% (Unspecified)
system.caches.L2Cache_Controller.L1_PUTX::total      6478012                       (Unspecified)
system.caches.L2Cache_Controller.L2_Replacement |      320180     12.50%     12.50% |      320038     12.50%     25.00% |      320031     12.50%     37.50% |      320055     12.50%     50.00% |      320032     12.50%     62.50% |      320087     12.50%     75.00% |      320018     12.50%     87.50% |      320086     12.50%    100.00% (Unspecified)
system.caches.L2Cache_Controller.L2_Replacement::total      2560527                       (Unspecified)
system.caches.L2Cache_Controller.L2_Replacement_clean |      484133     12.50%     12.50% |      484178     12.50%     25.00% |      483589     12.49%     37.48% |      483925     12.49%     49.98% |      484223     12.50%     62.48% |      484839     12.52%     75.00% |      484106     12.50%     87.50% |      484320     12.50%    100.00% (Unspecified)
system.caches.L2Cache_Controller.L2_Replacement_clean::total      3873313                       (Unspecified)
system.caches.L2Cache_Controller.Mem_Data |      820695     12.50%     12.50% |      820597     12.50%     25.00% |      820000     12.49%     37.49% |      820363     12.50%     49.99% |      820639     12.50%     62.49% |      821310     12.51%     75.00% |      820508     12.50%     87.50% |      820790     12.50%    100.00% (Unspecified)
system.caches.L2Cache_Controller.Mem_Data::total      6564902                       (Unspecified)
system.caches.L2Cache_Controller.Mem_Ack |      804313     12.50%     12.50% |      804215     12.50%     25.00% |      803620     12.49%     37.49% |      803980     12.50%     49.99% |      804255     12.50%     62.49% |      804926     12.51%     75.00% |      804124     12.50%     87.50% |      804406     12.50%    100.00% (Unspecified)
system.caches.L2Cache_Controller.Mem_Ack::total      6433839                       (Unspecified)
system.caches.L2Cache_Controller.WB_Data |        2704     13.25%     13.25% |        2426     11.89%     25.14% |        2041     10.00%     35.14% |        2389     11.71%     46.85% |        2374     11.63%     58.49% |        3008     14.74%     73.23% |        2710     13.28%     86.51% |        2753     13.49%    100.00% (Unspecified)
system.caches.L2Cache_Controller.WB_Data::total        20405                       (Unspecified)
system.caches.L2Cache_Controller.WB_Data_clean |         469     13.17%     13.17% |         423     11.88%     25.06% |         425     11.94%     36.99% |         466     13.09%     50.08% |         399     11.21%     61.29% |         437     12.28%     73.57% |         433     12.16%     85.73% |         508     14.27%    100.00% (Unspecified)
system.caches.L2Cache_Controller.WB_Data_clean::total         3560                       (Unspecified)
system.caches.L2Cache_Controller.Ack     |        5800     14.04%     14.04% |        5100     12.34%     26.38% |        5102     12.35%     38.72% |        4436     10.73%     49.46% |        5226     12.65%     62.10% |        5410     13.09%     75.20% |        5078     12.29%     87.48% |        5172     12.52%    100.00% (Unspecified)
system.caches.L2Cache_Controller.Ack::total        41324                       (Unspecified)
system.caches.L2Cache_Controller.Ack_all |        4560     12.68%     12.68% |        4647     12.92%     25.60% |        4430     12.32%     37.92% |        4341     12.07%     49.99% |        4487     12.48%     62.47% |        4509     12.54%     75.01% |        4497     12.51%     87.52% |        4489     12.48%    100.00% (Unspecified)
system.caches.L2Cache_Controller.Ack_all::total        35960                       (Unspecified)
system.caches.L2Cache_Controller.Unblock |         620     14.67%     14.67% |         503     11.91%     26.58% |         484     11.46%     38.04% |         522     12.36%     50.39% |         446     10.56%     60.95% |         456     10.79%     71.74% |         673     15.93%     87.67% |         521     12.33%    100.00% (Unspecified)
system.caches.L2Cache_Controller.Unblock::total         4225                       (Unspecified)
system.caches.L2Cache_Controller.Exclusive_Unblock |      822636     12.50%     12.50% |      822703     12.50%     25.00% |      821356     12.48%     37.48% |      822310     12.49%     49.98% |      822714     12.50%     62.48% |      823896     12.52%     75.00% |      822725     12.50%     87.50% |      822885     12.50%    100.00% (Unspecified)
system.caches.L2Cache_Controller.Exclusive_Unblock::total      6581225                       (Unspecified)
system.caches.L2Cache_Controller.NP.L1_GET_INSTR |         851     12.95%     12.95% |         861     13.10%     26.05% |         823     12.52%     38.57% |         695     10.58%     49.15% |         848     12.90%     62.05% |         846     12.87%     74.92% |         823     12.52%     87.45% |         825     12.55%    100.00% (Unspecified)
system.caches.L2Cache_Controller.NP.L1_GET_INSTR::total         6572                       (Unspecified)
system.caches.L2Cache_Controller.NP.L1_GETS |      567540     12.50%     12.50% |      567545     12.50%     25.00% |      567195     12.49%     37.49% |      567544     12.50%     49.99% |      567556     12.50%     62.49% |      567976     12.51%     75.00% |      567393     12.50%     87.50% |      567614     12.50%    100.00% (Unspecified)
system.caches.L2Cache_Controller.NP.L1_GETS::total      4540363                       (Unspecified)
system.caches.L2Cache_Controller.NP.L1_GETX |      252306     12.50%     12.50% |      252194     12.50%     25.00% |      251986     12.49%     37.49% |      252125     12.49%     49.98% |      252235     12.50%     62.48% |      252488     12.51%     74.99% |      252292     12.50%     87.49% |      252351     12.51%    100.00% (Unspecified)
system.caches.L2Cache_Controller.NP.L1_GETX::total      2017977                       (Unspecified)
system.caches.L2Cache_Controller.SS.L1_GET_INSTR |        4291     12.78%     12.78% |        5596     16.67%     29.46% |        3845     11.46%     40.91% |        2898      8.63%     49.54% |        3928     11.70%     61.25% |        3799     11.32%     72.56% |        4101     12.22%     84.78% |        5108     15.22%    100.00% (Unspecified)
system.caches.L2Cache_Controller.SS.L1_GET_INSTR::total        33566                       (Unspecified)
system.caches.L2Cache_Controller.SS.L1_GETS |        4697     23.33%     23.33% |        2638     13.10%     36.43% |        2776     13.79%     50.22% |        1779      8.84%     59.06% |        1801      8.95%     68.01% |        1802      8.95%     76.96% |        2003      9.95%     86.91% |        2636     13.09%    100.00% (Unspecified)
system.caches.L2Cache_Controller.SS.L1_GETS::total        20132                       (Unspecified)
system.caches.L2Cache_Controller.SS.L1_GETX |          45     57.69%     57.69% |           0      0.00%     57.69% |           0      0.00%     57.69% |           7      8.97%     66.67% |           2      2.56%     69.23% |           0      0.00%     69.23% |          24     30.77%    100.00% |           0      0.00%    100.00% (Unspecified)
system.caches.L2Cache_Controller.SS.L1_GETX::total           78                       (Unspecified)
system.caches.L2Cache_Controller.SS.L1_UPGRADE |         106     19.85%     19.85% |          78     14.61%     34.46% |          51      9.55%     44.01% |          13      2.43%     46.44% |          49      9.18%     55.62% |          18      3.37%     58.99% |         207     38.76%     97.75% |          12      2.25%    100.00% (Unspecified)
system.caches.L2Cache_Controller.SS.L1_UPGRADE::total          534                       (Unspecified)
system.caches.L2Cache_Controller.SS.L2_Replacement |           0      0.00%      0.00% |           3      3.95%      3.95% |          10     13.16%     17.11% |          44     57.89%     75.00% |           3      3.95%     78.95% |           3      3.95%     82.89% |          11     14.47%     97.37% |           2      2.63%    100.00% (Unspecified)
system.caches.L2Cache_Controller.SS.L2_Replacement::total           76                       (Unspecified)
system.caches.L2Cache_Controller.SS.L2_Replacement_clean |        1359     13.37%     13.37% |        1276     12.55%     25.91% |        1270     12.49%     38.40% |        1172     11.53%     49.93% |        1229     12.09%     62.02% |        1284     12.63%     74.65% |        1242     12.21%     86.86% |        1336     13.14%    100.00% (Unspecified)
system.caches.L2Cache_Controller.SS.L2_Replacement_clean::total        10168                       (Unspecified)
system.caches.L2Cache_Controller.M.L1_GET_INSTR |           1      9.09%      9.09% |           2     18.18%     27.27% |           1      9.09%     36.36% |           1      9.09%     45.45% |           1      9.09%     54.55% |           1      9.09%     63.64% |           2     18.18%     81.82% |           2     18.18%    100.00% (Unspecified)
system.caches.L2Cache_Controller.M.L1_GET_INSTR::total           11                       (Unspecified)
system.caches.L2Cache_Controller.M.L1_GETS |        2073     11.02%     11.02% |        2439     12.96%     23.98% |        2098     11.15%     35.13% |        2386     12.68%     47.81% |        2441     12.97%     60.78% |        2679     14.24%     75.01% |        2404     12.78%     87.79% |        2298     12.21%    100.00% (Unspecified)
system.caches.L2Cache_Controller.M.L1_GETS::total        18818                       (Unspecified)
system.caches.L2Cache_Controller.M.L1_GETX |         642     17.41%     17.41% |         463     12.55%     29.96% |          82      2.22%     32.19% |         291      7.89%     40.08% |         414     11.23%     51.30% |         717     19.44%     70.74% |         433     11.74%     82.48% |         646     17.52%    100.00% (Unspecified)
system.caches.L2Cache_Controller.M.L1_GETX::total         3688                       (Unspecified)
system.caches.L2Cache_Controller.M.L2_Replacement |      319954     12.50%     12.50% |      319881     12.50%     25.00% |      319981     12.50%     37.50% |      319901     12.50%     50.00% |      319903     12.50%     62.50% |      319849     12.50%     75.00% |      319870     12.50%     87.50% |      319855     12.50%    100.00% (Unspecified)
system.caches.L2Cache_Controller.M.L2_Replacement::total      2559194                       (Unspecified)
system.caches.L2Cache_Controller.M.L2_Replacement_clean |      477246     12.50%     12.50% |      477342     12.50%     25.00% |      477227     12.50%     37.49% |      477405     12.50%     49.99% |      477538     12.50%     62.50% |      477579     12.51%     75.00% |      477287     12.50%     87.50% |      477322     12.50%    100.00% (Unspecified)
system.caches.L2Cache_Controller.M.L2_Replacement_clean::total      3818946                       (Unspecified)
system.caches.L2Cache_Controller.MT.L1_GETS |         620     14.67%     14.67% |         503     11.91%     26.58% |         484     11.46%     38.04% |         522     12.36%     50.39% |         446     10.56%     60.95% |         456     10.79%     71.74% |         673     15.93%     87.67% |         521     12.33%    100.00% (Unspecified)
system.caches.L2Cache_Controller.MT.L1_GETS::total         4225                       (Unspecified)
system.caches.L2Cache_Controller.MT.L1_GETX |          12      5.80%      5.80% |          29     14.01%     19.81% |          18      8.70%     28.50% |           6      2.90%     31.40% |          53     25.60%     57.00% |          66     31.88%     88.89% |           8      3.86%     92.75% |          15      7.25%    100.00% (Unspecified)
system.caches.L2Cache_Controller.MT.L1_GETX::total          207                       (Unspecified)
system.caches.L2Cache_Controller.MT.L1_PUTX |      809593     12.50%     12.50% |      809817     12.50%     25.00% |      809012     12.49%     37.49% |      809611     12.50%     49.98% |      809951     12.50%     62.49% |      810507     12.51%     75.00% |      809705     12.50%     87.50% |      809816     12.50%    100.00% (Unspecified)
system.caches.L2Cache_Controller.MT.L1_PUTX::total      6478012                       (Unspecified)
system.caches.L2Cache_Controller.MT.L2_Replacement |         226     17.98%     17.98% |         154     12.25%     30.23% |          40      3.18%     33.41% |         110      8.75%     42.16% |         126     10.02%     52.19% |         235     18.70%     70.88% |         137     10.90%     81.78% |         229     18.22%    100.00% (Unspecified)
system.caches.L2Cache_Controller.MT.L2_Replacement::total         1257                       (Unspecified)
system.caches.L2Cache_Controller.MT.L2_Replacement_clean |        5528     12.51%     12.51% |        5560     12.58%     25.09% |        5092     11.52%     36.61% |        5348     12.10%     48.71% |        5456     12.34%     61.05% |        5976     13.52%     74.57% |        5577     12.62%     87.19% |        5662     12.81%    100.00% (Unspecified)
system.caches.L2Cache_Controller.MT.L2_Replacement_clean::total        44199                       (Unspecified)
system.caches.L2Cache_Controller.M_I.L1_GET_INSTR |           4     40.00%     40.00% |           1     10.00%     50.00% |           0      0.00%     50.00% |           0      0.00%     50.00% |           1     10.00%     60.00% |           2     20.00%     80.00% |           2     20.00%    100.00% |           0      0.00%    100.00% (Unspecified)
system.caches.L2Cache_Controller.M_I.L1_GET_INSTR::total           10                       (Unspecified)
system.caches.L2Cache_Controller.M_I.L1_GETS |           1     20.00%     20.00% |           1     20.00%     40.00% |           0      0.00%     40.00% |           0      0.00%     40.00% |           1     20.00%     60.00% |           2     40.00%    100.00% |           0      0.00%    100.00% |           0      0.00%    100.00% (Unspecified)
system.caches.L2Cache_Controller.M_I.L1_GETS::total            5                       (Unspecified)
system.caches.L2Cache_Controller.M_I.L1_GETX |           4     28.57%     28.57% |           0      0.00%     28.57% |           0      0.00%     28.57% |           1      7.14%     35.71% |           0      0.00%     35.71% |           4     28.57%     64.29% |           0      0.00%     64.29% |           5     35.71%    100.00% (Unspecified)
system.caches.L2Cache_Controller.M_I.L1_GETX::total           14                       (Unspecified)
system.caches.L2Cache_Controller.M_I.Mem_Ack |      804313     12.50%     12.50% |      804215     12.50%     25.00% |      803620     12.49%     37.49% |      803980     12.50%     49.99% |      804255     12.50%     62.49% |      804926     12.51%     75.00% |      804124     12.50%     87.50% |      804406     12.50%    100.00% (Unspecified)
system.caches.L2Cache_Controller.M_I.Mem_Ack::total      6433839                       (Unspecified)
system.caches.L2Cache_Controller.MT_I.WB_Data |         226     17.98%     17.98% |         154     12.25%     30.23% |          40      3.18%     33.41% |         110      8.75%     42.16% |         126     10.02%     52.19% |         235     18.70%     70.88% |         137     10.90%     81.78% |         229     18.22%    100.00% (Unspecified)
system.caches.L2Cache_Controller.MT_I.WB_Data::total         1257                       (Unspecified)
system.caches.L2Cache_Controller.MCT_I.WB_Data |        2327     12.59%     12.59% |        2192     11.86%     24.45% |        1942     10.51%     34.96% |        2223     12.03%     46.98% |        2201     11.91%     58.89% |        2754     14.90%     73.79% |        2333     12.62%     86.41% |        2511     13.59%    100.00% (Unspecified)
system.caches.L2Cache_Controller.MCT_I.WB_Data::total        18483                       (Unspecified)
system.caches.L2Cache_Controller.MCT_I.Ack_all |        3201     12.45%     12.45% |        3368     13.10%     25.54% |        3150     12.25%     37.79% |        3125     12.15%     49.95% |        3255     12.66%     62.60% |        3222     12.53%     75.13% |        3244     12.61%     87.75% |        3151     12.25%    100.00% (Unspecified)
system.caches.L2Cache_Controller.MCT_I.Ack_all::total        25716                       (Unspecified)
system.caches.L2Cache_Controller.I_I.L1_GET_INSTR |           0      0.00%      0.00% |           1    100.00%    100.00% |           0      0.00%    100.00% |           0      0.00%    100.00% |           0      0.00%    100.00% |           0      0.00%    100.00% |           0      0.00%    100.00% |           0      0.00%    100.00% (Unspecified)
system.caches.L2Cache_Controller.I_I.L1_GET_INSTR::total            1                       (Unspecified)
system.caches.L2Cache_Controller.I_I.Ack |        5800     14.09%     14.09% |        5091     12.37%     26.46% |        5050     12.27%     38.73% |        4362     10.60%     49.32% |        5217     12.67%     62.00% |        5407     13.14%     75.13% |        5067     12.31%     87.44% |        5170     12.56%    100.00% (Unspecified)
system.caches.L2Cache_Controller.I_I.Ack::total        41164                       (Unspecified)
system.caches.L2Cache_Controller.I_I.Ack_all |        1359     13.37%     13.37% |        1276     12.55%     25.91% |        1270     12.49%     38.40% |        1172     11.53%     49.93% |        1229     12.09%     62.02% |        1284     12.63%     74.65% |        1242     12.21%     86.86% |        1336     13.14%    100.00% (Unspecified)
system.caches.L2Cache_Controller.I_I.Ack_all::total        10168                       (Unspecified)
system.caches.L2Cache_Controller.S_I.Ack |           0      0.00%      0.00% |           9      5.62%      5.62% |          52     32.50%     38.12% |          74     46.25%     84.38% |           9      5.62%     90.00% |           3      1.88%     91.88% |          11      6.88%     98.75% |           2      1.25%    100.00% (Unspecified)
system.caches.L2Cache_Controller.S_I.Ack::total          160                       (Unspecified)
system.caches.L2Cache_Controller.S_I.Ack_all |           0      0.00%      0.00% |           3      3.95%      3.95% |          10     13.16%     17.11% |          44     57.89%     75.00% |           3      3.95%     78.95% |           3      3.95%     82.89% |          11     14.47%     97.37% |           2      2.63%    100.00% (Unspecified)
system.caches.L2Cache_Controller.S_I.Ack_all::total           76                       (Unspecified)
system.caches.L2Cache_Controller.ISS.L1_GETS |          86     20.00%     20.00% |          42      9.77%     29.77% |          70     16.28%     46.05% |          61     14.19%     60.23% |          36      8.37%     68.60% |          48     11.16%     79.77% |          36      8.37%     88.14% |          51     11.86%    100.00% (Unspecified)
system.caches.L2Cache_Controller.ISS.L1_GETS::total          430                       (Unspecified)
system.caches.L2Cache_Controller.ISS.Mem_Data |      567454     12.50%     12.50% |      567501     12.50%     25.00% |      567122     12.49%     37.49% |      567482     12.50%     49.99% |      567520     12.50%     62.49% |      567928     12.51%     75.00% |      567357     12.50%     87.50% |      567563     12.50%    100.00% (Unspecified)
system.caches.L2Cache_Controller.ISS.Mem_Data::total      4539927                       (Unspecified)
system.caches.L2Cache_Controller.IS.L1_GET_INSTR |         892     12.63%     12.63% |         836     11.84%     24.48% |         789     11.18%     35.65% |         792     11.22%     46.87% |         930     13.17%     60.04% |        1061     15.03%     75.07% |         923     13.07%     88.14% |         837     11.86%    100.00% (Unspecified)
system.caches.L2Cache_Controller.IS.L1_GET_INSTR::total         7060                       (Unspecified)
system.caches.L2Cache_Controller.IS.L1_GETS |         125     17.81%     17.81% |         102     14.53%     32.34% |          90     12.82%     45.16% |         113     16.10%     61.25% |          40      5.70%     66.95% |          77     10.97%     77.92% |          76     10.83%     88.75% |          79     11.25%    100.00% (Unspecified)
system.caches.L2Cache_Controller.IS.L1_GETS::total          702                       (Unspecified)
system.caches.L2Cache_Controller.IS.Mem_Data |         937     13.38%     13.38% |         903     12.90%     26.28% |         893     12.75%     39.03% |         756     10.80%     49.83% |         884     12.62%     62.45% |         894     12.77%     75.22% |         859     12.27%     87.49% |         876     12.51%    100.00% (Unspecified)
system.caches.L2Cache_Controller.IS.Mem_Data::total         7002                       (Unspecified)
system.caches.L2Cache_Controller.IM.L1_GETX |           0      0.00%      0.00% |           0      0.00%      0.00% |           1      4.00%      4.00% |           0      0.00%      4.00% |          23     92.00%     96.00% |           0      0.00%     96.00% |           1      4.00%    100.00% |           0      0.00%    100.00% (Unspecified)
system.caches.L2Cache_Controller.IM.L1_GETX::total           25                       (Unspecified)
system.caches.L2Cache_Controller.IM.Mem_Data |      252304     12.50%     12.50% |      252193     12.50%     25.00% |      251985     12.49%     37.49% |      252125     12.49%     49.98% |      252235     12.50%     62.48% |      252488     12.51%     74.99% |      252292     12.50%     87.49% |      252351     12.51%    100.00% (Unspecified)
system.caches.L2Cache_Controller.IM.Mem_Data::total      2017973                       (Unspecified)
system.caches.L2Cache_Controller.SS_MB.L1_GETS |           0      0.00%      0.00% |           0      0.00%      0.00% |           0      0.00%      0.00% |          42     13.04%     13.04% |          32      9.94%     22.98% |           0      0.00%     22.98% |         248     77.02%    100.00% |           0      0.00%    100.00% (Unspecified)
system.caches.L2Cache_Controller.SS_MB.L1_GETS::total          322                       (Unspecified)
system.caches.L2Cache_Controller.SS_MB.Exclusive_Unblock |         151     24.67%     24.67% |          78     12.75%     37.42% |          51      8.33%     45.75% |          20      3.27%     49.02% |          51      8.33%     57.35% |          18      2.94%     60.29% |         231     37.75%     98.04% |          12      1.96%    100.00% (Unspecified)
system.caches.L2Cache_Controller.SS_MB.Exclusive_Unblock::total          612                       (Unspecified)
system.caches.L2Cache_Controller.MT_MB.L1_GETS |           0      0.00%      0.00% |           0      0.00%      0.00% |           1      7.14%      7.14% |           0      0.00%      7.14% |           0      0.00%      7.14% |           7     50.00%     57.14% |           6     42.86%    100.00% |           0      0.00%    100.00% (Unspecified)
system.caches.L2Cache_Controller.MT_MB.L1_GETS::total           14                       (Unspecified)
system.caches.L2Cache_Controller.MT_MB.L1_GETX |           0      0.00%      0.00% |           2      3.64%      3.64% |           1      1.82%      5.45% |           0      0.00%      5.45% |          52     94.55%    100.00% |           0      0.00%    100.00% |           0      0.00%    100.00% |           0      0.00%    100.00% (Unspecified)
system.caches.L2Cache_Controller.MT_MB.L1_GETX::total           55                       (Unspecified)
system.caches.L2Cache_Controller.MT_MB.Exclusive_Unblock |      822485     12.50%     12.50% |      822625     12.50%     25.00% |      821305     12.48%     37.48% |      822290     12.50%     49.98% |      822663     12.50%     62.48% |      823878     12.52%     75.00% |      822494     12.50%     87.50% |      822873     12.50%    100.00% (Unspecified)
system.caches.L2Cache_Controller.MT_MB.Exclusive_Unblock::total      6580613                       (Unspecified)
system.caches.L2Cache_Controller.MT_IIB.L1_GETS |          33      8.87%      8.87% |          27      7.26%     16.13% |          34      9.14%     25.27% |          36      9.68%     34.95% |          36      9.68%     44.62% |          24      6.45%     51.08% |         134     36.02%     87.10% |          48     12.90%    100.00% (Unspecified)
system.caches.L2Cache_Controller.MT_IIB.L1_GETS::total          372                       (Unspecified)
system.caches.L2Cache_Controller.MT_IIB.WB_Data |         151     24.16%     24.16% |          80     12.80%     36.96% |          40      6.40%     43.36% |          36      5.76%     49.12% |          47      7.52%     56.64% |          19      3.04%     59.68% |         239     38.24%     97.92% |          13      2.08%    100.00% (Unspecified)
system.caches.L2Cache_Controller.MT_IIB.WB_Data::total          625                       (Unspecified)
system.caches.L2Cache_Controller.MT_IIB.WB_Data_clean |         469     13.19%     13.19% |         423     11.89%     25.08% |         424     11.92%     37.00% |         465     13.07%     50.07% |         399     11.22%     61.29% |         437     12.29%     73.57% |         432     12.15%     85.72% |         508     14.28%    100.00% (Unspecified)
system.caches.L2Cache_Controller.MT_IIB.WB_Data_clean::total         3557                       (Unspecified)
system.caches.L2Cache_Controller.MT_IIB.Unblock |           0      0.00%      0.00% |           0      0.00%      0.00% |          20     46.51%     46.51% |          21     48.84%     95.35% |           0      0.00%     95.35% |           0      0.00%     95.35% |           2      4.65%    100.00% |           0      0.00%    100.00% (Unspecified)
system.caches.L2Cache_Controller.MT_IIB.Unblock::total           43                       (Unspecified)
system.caches.L2Cache_Controller.MT_IB.WB_Data |           0      0.00%      0.00% |           0      0.00%      0.00% |          19     47.50%     47.50% |          20     50.00%     97.50% |           0      0.00%     97.50% |           0      0.00%     97.50% |           1      2.50%    100.00% |           0      0.00%    100.00% (Unspecified)
system.caches.L2Cache_Controller.MT_IB.WB_Data::total           40                       (Unspecified)
system.caches.L2Cache_Controller.MT_IB.WB_Data_clean |           0      0.00%      0.00% |           0      0.00%      0.00% |           1     33.33%     33.33% |           1     33.33%     66.67% |           0      0.00%     66.67% |           0      0.00%     66.67% |           1     33.33%    100.00% |           0      0.00%    100.00% (Unspecified)
system.caches.L2Cache_Controller.MT_IB.WB_Data_clean::total            3                       (Unspecified)
system.caches.L2Cache_Controller.MT_SB.L1_GETS |           0      0.00%      0.00% |           3     60.00%     60.00% |           0      0.00%     60.00% |           0      0.00%     60.00% |           1     20.00%     80.00% |           0      0.00%     80.00% |           0      0.00%     80.00% |           1     20.00%    100.00% (Unspecified)
system.caches.L2Cache_Controller.MT_SB.L1_GETS::total            5                       (Unspecified)
system.caches.L2Cache_Controller.MT_SB.L1_UPGRADE |           0      0.00%      0.00% |           0      0.00%      0.00% |           0      0.00%      0.00% |           0      0.00%      0.00% |           0      0.00%      0.00% |           0      0.00%      0.00% |          55    100.00%    100.00% |           0      0.00%    100.00% (Unspecified)
system.caches.L2Cache_Controller.MT_SB.L1_UPGRADE::total           55                       (Unspecified)
system.caches.L2Cache_Controller.MT_SB.Unblock |         620     14.83%     14.83% |         503     12.03%     26.85% |         464     11.10%     37.95% |         501     11.98%     49.93% |         446     10.66%     60.59% |         456     10.90%     71.50% |         671     16.04%     87.54% |         521     12.46%    100.00% (Unspecified)
system.caches.L2Cache_Controller.MT_SB.Unblock::total         4182                       (Unspecified)
system.caches.RequestType.LD.latency_hist_seqr::bucket_size         1024                       (Unspecified)
system.caches.RequestType.LD.latency_hist_seqr::max_bucket        10239                       (Unspecified)
system.caches.RequestType.LD.latency_hist_seqr::samples     48143173                       (Unspecified)
system.caches.RequestType.LD.latency_hist_seqr::mean   100.192089                       (Unspecified)
system.caches.RequestType.LD.latency_hist_seqr::gmean     1.927473                       (Unspecified)
system.caches.RequestType.LD.latency_hist_seqr::stdev   349.440799                       (Unspecified)
system.caches.RequestType.LD.latency_hist_seqr |    46166645     95.89%     95.89% |     1722533      3.58%     99.47% |      223545      0.46%     99.94% |       28100      0.06%    100.00% |        2193      0.00%    100.00% |         149      0.00%    100.00% |           8      0.00%    100.00% |           0      0.00%    100.00% |           0      0.00%    100.00% |           0      0.00%    100.00% (Unspecified)
system.caches.RequestType.LD.latency_hist_seqr::total     48143173                       (Unspecified)
system.caches.RequestType.LD.hit_latency_hist_seqr::bucket_size            1                       (Unspecified)
system.caches.RequestType.LD.hit_latency_hist_seqr::max_bucket            9                       (Unspecified)
system.caches.RequestType.LD.hit_latency_hist_seqr::samples     43558509                       (Unspecified)
system.caches.RequestType.LD.hit_latency_hist_seqr::mean     1.012209                       (Unspecified)
system.caches.RequestType.LD.hit_latency_hist_seqr::gmean     1.008498                       (Unspecified)
system.caches.RequestType.LD.hit_latency_hist_seqr::stdev     0.109824                       (Unspecified)
system.caches.RequestType.LD.hit_latency_hist_seqr |           0      0.00%      0.00% |    43026763     98.78%     98.78% |      531706      1.22%    100.00% |          40      0.00%    100.00% |           0      0.00%    100.00% |           0      0.00%    100.00% |           0      0.00%    100.00% |           0      0.00%    100.00% |           0      0.00%    100.00% |           0      0.00%    100.00% (Unspecified)
system.caches.RequestType.LD.hit_latency_hist_seqr::total     43558509                       (Unspecified)
system.caches.RequestType.LD.miss_latency_hist_seqr::bucket_size         1024                       (Unspecified)
system.caches.RequestType.LD.miss_latency_hist_seqr::max_bucket        10239                       (Unspecified)
system.caches.RequestType.LD.miss_latency_hist_seqr::samples      4584664                       (Unspecified)
system.caches.RequestType.LD.miss_latency_hist_seqr::mean  1042.491832                       (Unspecified)
system.caches.RequestType.LD.miss_latency_hist_seqr::gmean   907.237956                       (Unspecified)
system.caches.RequestType.LD.miss_latency_hist_seqr::stdev   548.515257                       (Unspecified)
system.caches.RequestType.LD.miss_latency_hist_seqr |     2608136     56.89%     56.89% |     1722533     37.57%     94.46% |      223545      4.88%     99.34% |       28100      0.61%     99.95% |        2193      0.05%    100.00% |         149      0.00%    100.00% |           8      0.00%    100.00% |           0      0.00%    100.00% |           0      0.00%    100.00% |           0      0.00%    100.00% (Unspecified)
system.caches.RequestType.LD.miss_latency_hist_seqr::total      4584664                       (Unspecified)
system.caches.RequestType.ST.latency_hist_seqr::bucket_size         1024                       (Unspecified)
system.caches.RequestType.ST.latency_hist_seqr::max_bucket        10239                       (Unspecified)
system.caches.RequestType.ST.latency_hist_seqr::samples     69524904                       (Unspecified)
system.caches.RequestType.ST.latency_hist_seqr::mean    26.205550                       (Unspecified)
system.caches.RequestType.ST.latency_hist_seqr::gmean     1.224808                       (Unspecified)
system.caches.RequestType.ST.latency_hist_seqr::stdev   168.722803                       (Unspecified)
system.caches.RequestType.ST.latency_hist_seqr |    68921143     99.13%     99.13% |      532913      0.77%     99.90% |       64008      0.09%     99.99% |        6544      0.01%    100.00% |         287      0.00%    100.00% |           9      0.00%    100.00% |           0      0.00%    100.00% |           0      0.00%    100.00% |           0      0.00%    100.00% |           0      0.00%    100.00% (Unspecified)
system.caches.RequestType.ST.latency_hist_seqr::total     69524904                       (Unspecified)
system.caches.RequestType.ST.hit_latency_hist_seqr::bucket_size          512                       (Unspecified)
system.caches.RequestType.ST.hit_latency_hist_seqr::max_bucket         5119                       (Unspecified)
system.caches.RequestType.ST.hit_latency_hist_seqr::samples     67506170                       (Unspecified)
system.caches.RequestType.ST.hit_latency_hist_seqr::mean     1.021266                       (Unspecified)
system.caches.RequestType.ST.hit_latency_hist_seqr::gmean     1.010678                       (Unspecified)
system.caches.RequestType.ST.hit_latency_hist_seqr::stdev     2.552009                       (Unspecified)
system.caches.RequestType.ST.hit_latency_hist_seqr |    67505847    100.00%    100.00% |         193      0.00%    100.00% |          87      0.00%    100.00% |          26      0.00%    100.00% |          13      0.00%    100.00% |           4      0.00%    100.00% |           0      0.00%    100.00% |           0      0.00%    100.00% |           0      0.00%    100.00% |           0      0.00%    100.00% (Unspecified)
system.caches.RequestType.ST.hit_latency_hist_seqr::total     67506170                       (Unspecified)
system.caches.RequestType.ST.miss_latency_hist_seqr::bucket_size         1024                       (Unspecified)
system.caches.RequestType.ST.miss_latency_hist_seqr::max_bucket        10239                       (Unspecified)
system.caches.RequestType.ST.miss_latency_hist_seqr::samples      2018734                       (Unspecified)
system.caches.RequestType.ST.miss_latency_hist_seqr::mean   868.364332                       (Unspecified)
system.caches.RequestType.ST.miss_latency_hist_seqr::gmean   756.471607                       (Unspecified)
system.caches.RequestType.ST.miss_latency_hist_seqr::stdev   499.754234                       (Unspecified)
system.caches.RequestType.ST.miss_latency_hist_seqr |     1415103     70.10%     70.10% |      532800     26.39%     96.49% |       63991      3.17%     99.66% |        6544      0.32%     99.99% |         287      0.01%    100.00% |           9      0.00%    100.00% |           0      0.00%    100.00% |           0      0.00%    100.00% |           0      0.00%    100.00% |           0      0.00%    100.00% (Unspecified)
system.caches.RequestType.ST.miss_latency_hist_seqr::total      2018734                       (Unspecified)
system.caches.RequestType.IFETCH.latency_hist_seqr::bucket_size          512                       (Unspecified)
system.caches.RequestType.IFETCH.latency_hist_seqr::max_bucket         5119                       (Unspecified)
system.caches.RequestType.IFETCH.latency_hist_seqr::samples     22776553                       (Unspecified)
system.caches.RequestType.IFETCH.latency_hist_seqr::mean     1.255525                       (Unspecified)
system.caches.RequestType.IFETCH.latency_hist_seqr::gmean     1.007661                       (Unspecified)
system.caches.RequestType.IFETCH.latency_hist_seqr::stdev    13.203223                       (Unspecified)
system.caches.RequestType.IFETCH.latency_hist_seqr |    22774339     99.99%     99.99% |        1197      0.01%    100.00% |         712      0.00%    100.00% |         207      0.00%    100.00% |          55      0.00%    100.00% |          35      0.00%    100.00% |           5      0.00%    100.00% |           1      0.00%    100.00% |           2      0.00%    100.00% |           0      0.00%    100.00% (Unspecified)
system.caches.RequestType.IFETCH.latency_hist_seqr::total     22776553                       (Unspecified)
system.caches.RequestType.IFETCH.hit_latency_hist_seqr::bucket_size            1                       (Unspecified)
system.caches.RequestType.IFETCH.hit_latency_hist_seqr::max_bucket            9                       (Unspecified)
system.caches.RequestType.IFETCH.hit_latency_hist_seqr::samples     22729344                       (Unspecified)
system.caches.RequestType.IFETCH.hit_latency_hist_seqr::mean     1.000551                       (Unspecified)
system.caches.RequestType.IFETCH.hit_latency_hist_seqr::gmean     1.000382                       (Unspecified)
system.caches.RequestType.IFETCH.hit_latency_hist_seqr::stdev     0.023460                       (Unspecified)
system.caches.RequestType.IFETCH.hit_latency_hist_seqr |           0      0.00%      0.00% |    22716831     99.94%     99.94% |       12512      0.06%    100.00% |           1      0.00%    100.00% |           0      0.00%    100.00% |           0      0.00%    100.00% |           0      0.00%    100.00% |           0      0.00%    100.00% |           0      0.00%    100.00% |           0      0.00%    100.00% (Unspecified)
system.caches.RequestType.IFETCH.hit_latency_hist_seqr::total     22729344                       (Unspecified)
system.caches.RequestType.IFETCH.miss_latency_hist_seqr::bucket_size          512                       (Unspecified)
system.caches.RequestType.IFETCH.miss_latency_hist_seqr::max_bucket         5119                       (Unspecified)
system.caches.RequestType.IFETCH.miss_latency_hist_seqr::samples        47209                       (Unspecified)
system.caches.RequestType.IFETCH.miss_latency_hist_seqr::mean   124.015929                       (Unspecified)
system.caches.RequestType.IFETCH.miss_latency_hist_seqr::gmean    33.054942                       (Unspecified)
system.caches.RequestType.IFETCH.miss_latency_hist_seqr::stdev   262.688071                       (Unspecified)
system.caches.RequestType.IFETCH.miss_latency_hist_seqr |       44995     95.31%     95.31% |        1197      2.54%     97.85% |         712      1.51%     99.35% |         207      0.44%     99.79% |          55      0.12%     99.91% |          35      0.07%     99.98% |           5      0.01%     99.99% |           1      0.00%    100.00% |           2      0.00%    100.00% |           0      0.00%    100.00% (Unspecified)
system.caches.RequestType.IFETCH.miss_latency_hist_seqr::total        47209                       (Unspecified)
system.caches.RequestType.RMW_Read.latency_hist_seqr::bucket_size          512                       (Unspecified)
system.caches.RequestType.RMW_Read.latency_hist_seqr::max_bucket         5119                       (Unspecified)
system.caches.RequestType.RMW_Read.latency_hist_seqr::samples       258873                       (Unspecified)
system.caches.RequestType.RMW_Read.latency_hist_seqr::mean     6.796533                       (Unspecified)
system.caches.RequestType.RMW_Read.latency_hist_seqr::gmean     1.092397                       (Unspecified)
system.caches.RequestType.RMW_Read.latency_hist_seqr::stdev    81.810014                       (Unspecified)
system.caches.RequestType.RMW_Read.latency_hist_seqr |      257533     99.48%     99.48% |         872      0.34%     99.82% |         306      0.12%     99.94% |          85      0.03%     99.97% |          51      0.02%     99.99% |          20      0.01%    100.00% |           2      0.00%    100.00% |           4      0.00%    100.00% |           0      0.00%    100.00% |           0      0.00%    100.00% (Unspecified)
system.caches.RequestType.RMW_Read.latency_hist_seqr::total       258873                       (Unspecified)
system.caches.RequestType.RMW_Read.hit_latency_hist_seqr::bucket_size          512                       (Unspecified)
system.caches.RequestType.RMW_Read.hit_latency_hist_seqr::max_bucket         5119                       (Unspecified)
system.caches.RequestType.RMW_Read.hit_latency_hist_seqr::samples       255919                       (Unspecified)
system.caches.RequestType.RMW_Read.hit_latency_hist_seqr::mean     2.130948                       (Unspecified)
system.caches.RequestType.RMW_Read.hit_latency_hist_seqr::gmean     1.037522                       (Unspecified)
system.caches.RequestType.RMW_Read.hit_latency_hist_seqr::stdev    35.681873                       (Unspecified)
system.caches.RequestType.RMW_Read.hit_latency_hist_seqr |      255680     99.91%     99.91% |         143      0.06%     99.96% |          55      0.02%     99.98% |          27      0.01%     99.99% |          12      0.00%    100.00% |           2      0.00%    100.00% |           0      0.00%    100.00% |           0      0.00%    100.00% |           0      0.00%    100.00% |           0      0.00%    100.00% (Unspecified)
system.caches.RequestType.RMW_Read.hit_latency_hist_seqr::total       255919                       (Unspecified)
system.caches.RequestType.RMW_Read.miss_latency_hist_seqr::bucket_size          512                       (Unspecified)
system.caches.RequestType.RMW_Read.miss_latency_hist_seqr::max_bucket         5119                       (Unspecified)
system.caches.RequestType.RMW_Read.miss_latency_hist_seqr::samples         2954                       (Unspecified)
system.caches.RequestType.RMW_Read.miss_latency_hist_seqr::mean   410.998307                       (Unspecified)
system.caches.RequestType.RMW_Read.miss_latency_hist_seqr::gmean    94.960850                       (Unspecified)
system.caches.RequestType.RMW_Read.miss_latency_hist_seqr::stdev   557.731264                       (Unspecified)
[...]
system.o3Cpu7.iew.predictedTakenIncorrect         8728                       # Number of branches that were predicted taken incorrectly (Count)
system.o3Cpu7.iew.predictedNotTakenIncorrect         3542                       # Number of branches that were predicted not taken incorrectly (Count)
system.o3Cpu7.iew.branchMispredicts             12270                       # Number of branch mispredicts detected at execute (Count)
system.o3Cpu7.iew.instsToCommit              62229012                       # Cumulative count of insts sent to commit (Count)
system.o3Cpu7.iew.writebackCount             62226695                       # Cumulative count of insts written-back (Count)
system.o3Cpu7.iew.producerInst               40530922                       # Number of instructions producing a value (Count)
system.o3Cpu7.iew.consumerInst               62893059                       # Number of instructions consuming a value (Count)
system.o3Cpu7.iew.wbRate                     0.178613                       # Insts written-back per cycle ((Count/Cycle))
system.o3Cpu7.iew.wbFanout                   0.644442                       # Average fanout of values written-back ((Count/Count))
system.o3Cpu7.interrupts.clk_domain.clock         3200                       # Clock period in ticks (Tick)
system.o3Cpu7.lsq0.forwLoads                  1610247                       # Number of loads that had data forwarded from stores (Count)
system.o3Cpu7.lsq0.squashedLoads                68494                       # Number of loads squashed (Count)
system.o3Cpu7.lsq0.ignoredResponses               105                       # Number of memory responses ignored because the instruction is squashed (Count)
system.o3Cpu7.lsq0.memOrderViolation             2480                       # Number of memory ordering violations (Count)
system.o3Cpu7.lsq0.squashedStores               48015                       # Number of stores squashed (Count)
system.o3Cpu7.lsq0.rescheduledLoads                67                       # Number of loads that were rescheduled (Count)
system.o3Cpu7.lsq0.blockedByCache              719120                       # Number of times an access to memory failed due to the cache being blocked (Count)
system.o3Cpu7.lsq0.loadToUse::samples        12479513                       # Distribution of cycle latency between the first time a load is issued and its completion (Unspecified)
system.o3Cpu7.lsq0.loadToUse::mean         269.777054                       # Distribution of cycle latency between the first time a load is issued and its completion (Unspecified)
system.o3Cpu7.lsq0.loadToUse::stdev        534.547621                       # Distribution of cycle latency between the first time a load is issued and its completion (Unspecified)
system.o3Cpu7.lsq0.loadToUse::0-9             8795829     70.48%     70.48% # Distribution of cycle latency between the first time a load is issued and its completion (Unspecified)
system.o3Cpu7.lsq0.loadToUse::10-19             22545      0.18%     70.66% # Distribution of cycle latency between the first time a load is issued and its completion (Unspecified)
system.o3Cpu7.lsq0.loadToUse::20-29             24755      0.20%     70.86% # Distribution of cycle latency between the first time a load is issued and its completion (Unspecified)
system.o3Cpu7.lsq0.loadToUse::30-39             49854      0.40%     71.26% # Distribution of cycle latency between the first time a load is issued and its completion (Unspecified)
system.o3Cpu7.lsq0.loadToUse::40-49             77196      0.62%     71.88% # Distribution of cycle latency between the first time a load is issued and its completion (Unspecified)
system.o3Cpu7.lsq0.loadToUse::50-59             30240      0.24%     72.12% # Distribution of cycle latency between the first time a load is issued and its completion (Unspecified)
system.o3Cpu7.lsq0.loadToUse::60-69              7811      0.06%     72.18% # Distribution of cycle latency between the first time a load is issued and its completion (Unspecified)
system.o3Cpu7.lsq0.loadToUse::70-79             12021      0.10%     72.28% # Distribution of cycle latency between the first time a load is issued and its completion (Unspecified)
system.o3Cpu7.lsq0.loadToUse::80-89             25596      0.21%     72.49% # Distribution of cycle latency between the first time a load is issued and its completion (Unspecified)
system.o3Cpu7.lsq0.loadToUse::90-99             28933      0.23%     72.72% # Distribution of cycle latency between the first time a load is issued and its completion (Unspecified)
system.o3Cpu7.lsq0.loadToUse::100-109           16347      0.13%     72.85% # Distribution of cycle latency between the first time a load is issued and its completion (Unspecified)
system.o3Cpu7.lsq0.loadToUse::110-119            6139      0.05%     72.90% # Distribution of cycle latency between the first time a load is issued and its completion (Unspecified)
system.o3Cpu7.lsq0.loadToUse::120-129           10324      0.08%     72.98% # Distribution of cycle latency between the first time a load is issued and its completion (Unspecified)
system.o3Cpu7.lsq0.loadToUse::130-139           20570      0.16%     73.15% # Distribution of cycle latency between the first time a load is issued and its completion (Unspecified)
system.o3Cpu7.lsq0.loadToUse::140-149           23836      0.19%     73.34% # Distribution of cycle latency between the first time a load is issued and its completion (Unspecified)
system.o3Cpu7.lsq0.loadToUse::150-159           13066      0.10%     73.44% # Distribution of cycle latency between the first time a load is issued and its completion (Unspecified)
system.o3Cpu7.lsq0.loadToUse::160-169            6144      0.05%     73.49% # Distribution of cycle latency between the first time a load is issued and its completion (Unspecified)
system.o3Cpu7.lsq0.loadToUse::170-179           10560      0.08%     73.57% # Distribution of cycle latency between the first time a load is issued and its completion (Unspecified)
system.o3Cpu7.lsq0.loadToUse::180-189           19722      0.16%     73.73% # Distribution of cycle latency between the first time a load is issued and its completion (Unspecified)
system.o3Cpu7.lsq0.loadToUse::190-199           21749      0.17%     73.91% # Distribution of cycle latency between the first time a load is issued and its completion (Unspecified)
system.o3Cpu7.lsq0.loadToUse::200-209           12479      0.10%     74.01% # Distribution of cycle latency between the first time a load is issued and its completion (Unspecified)
system.o3Cpu7.lsq0.loadToUse::210-219            7558      0.06%     74.07% # Distribution of cycle latency between the first time a load is issued and its completion (Unspecified)
system.o3Cpu7.lsq0.loadToUse::220-229           11335      0.09%     74.16% # Distribution of cycle latency between the first time a load is issued and its completion (Unspecified)
system.o3Cpu7.lsq0.loadToUse::230-239           18641      0.15%     74.31% # Distribution of cycle latency between the first time a load is issued and its completion (Unspecified)
system.o3Cpu7.lsq0.loadToUse::240-249           20026      0.16%     74.47% # Distribution of cycle latency between the first time a load is issued and its completion (Unspecified)
system.o3Cpu7.lsq0.loadToUse::250-259           14579      0.12%     74.59% # Distribution of cycle latency between the first time a load is issued and its completion (Unspecified)
system.o3Cpu7.lsq0.loadToUse::260-269            9924      0.08%     74.66% # Distribution of cycle latency between the first time a load is issued and its completion (Unspecified)
system.o3Cpu7.lsq0.loadToUse::270-279           14518      0.12%     74.78% # Distribution of cycle latency between the first time a load is issued and its completion (Unspecified)
system.o3Cpu7.lsq0.loadToUse::280-289           18152      0.15%     74.93% # Distribution of cycle latency between the first time a load is issued and its completion (Unspecified)
system.o3Cpu7.lsq0.loadToUse::290-299           20532      0.16%     75.09% # Distribution of cycle latency between the first time a load is issued and its completion (Unspecified)
system.o3Cpu7.lsq0.loadToUse::overflows       3108532     24.91%    100.00% # Distribution of cycle latency between the first time a load is issued and its completion (Unspecified)
system.o3Cpu7.lsq0.loadToUse::min_value             2                       # Distribution of cycle latency between the first time a load is issued and its completion (Unspecified)
system.o3Cpu7.lsq0.loadToUse::max_value          9937                       # Distribution of cycle latency between the first time a load is issued and its completion (Unspecified)
system.o3Cpu7.lsq0.loadToUse::total          12479513                       # Distribution of cycle latency between the first time a load is issued and its completion (Unspecified)
system.o3Cpu7.mmu.dtb.rdAccesses             12534702                       # TLB accesses on read requests (Count)
system.o3Cpu7.mmu.dtb.wrAccesses              8779157                       # TLB accesses on write requests (Count)
system.o3Cpu7.mmu.dtb.rdMisses                   5950                       # TLB misses on read requests (Count)
system.o3Cpu7.mmu.dtb.wrMisses                   1839                       # TLB misses on write requests (Count)
system.o3Cpu7.mmu.dtb.walker.power_state.pwrStateResidencyTicks::UNDEFINED  71127024800                       # Cumulative time (in ticks) in various power states (Tick)
system.o3Cpu7.mmu.itb.rdAccesses                    0                       # TLB accesses on read requests (Count)
system.o3Cpu7.mmu.itb.wrAccesses              2902234                       # TLB accesses on write requests (Count)
system.o3Cpu7.mmu.itb.rdMisses                      0                       # TLB misses on read requests (Count)
system.o3Cpu7.mmu.itb.wrMisses                    280                       # TLB misses on write requests (Count)
system.o3Cpu7.mmu.itb.walker.power_state.pwrStateResidencyTicks::UNDEFINED  71127024800                       # Cumulative time (in ticks) in various power states (Tick)
system.o3Cpu7.power_state.numTransitions            4                       # Number of power state transitions (Count)
system.o3Cpu7.power_state.ticksClkGated::samples            2                       # Distribution of time spent in the clock gated state (Tick)
system.o3Cpu7.power_state.ticksClkGated::mean    218529700                       # Distribution of time spent in the clock gated state (Tick)
system.o3Cpu7.power_state.ticksClkGated::stdev 25700644.490362                       # Distribution of time spent in the clock gated state (Tick)
system.o3Cpu7.power_state.ticksClkGated::1000-5e+10            2    100.00%    100.00% # Distribution of time spent in the clock gated state (Tick)
system.o3Cpu7.power_state.ticksClkGated::min_value    200356600                       # Distribution of time spent in the clock gated state (Tick)
system.o3Cpu7.power_state.ticksClkGated::max_value    236702800                       # Distribution of time spent in the clock gated state (Tick)
system.o3Cpu7.power_state.ticksClkGated::total            2                       # Distribution of time spent in the clock gated state (Tick)
system.o3Cpu7.power_state.pwrStateResidencyTicks::ON  68731788800                       # Cumulative time (in ticks) in various power states (Tick)
system.o3Cpu7.power_state.pwrStateResidencyTicks::CLK_GATED    437059400                       # Cumulative time (in ticks) in various power states (Tick)
system.o3Cpu7.power_state.pwrStateResidencyTicks::OFF   1958176600                       # Cumulative time (in ticks) in various power states (Tick)
system.o3Cpu7.rename.squashCycles               13878                       # Number of cycles rename is squashing (Cycle)
system.o3Cpu7.rename.idleCycles               3470354                       # Number of cycles rename is idle (Cycle)
system.o3Cpu7.rename.blockCycles             75977298                       # Number of cycles rename is blocking (Cycle)
system.o3Cpu7.rename.serializeStallCycles       890149                       # count of cycles rename stalled for serializing inst (Cycle)
system.o3Cpu7.rename.runCycles                3236063                       # Number of cycles rename is running (Cycle)
system.o3Cpu7.rename.unblockCycles          239173432                       # Number of cycles rename is unblocking (Cycle)
system.o3Cpu7.rename.renamedInsts            62464420                       # Number of instructions processed by rename (Count)
system.o3Cpu7.rename.ROBFullEvents              28822                       # Number of times rename has blocked due to ROB full (Count)
system.o3Cpu7.rename.IQFullEvents             1879458                       # Number of times rename has blocked due to IQ full (Count)
system.o3Cpu7.rename.LQFullEvents            16815267                       # Number of times rename has blocked due to LQ full (Count)
system.o3Cpu7.rename.SQFullEvents           221162400                       # Number of times rename has blocked due to SQ full (Count)
system.o3Cpu7.rename.renamedOperands         81033550                       # Number of destination operands rename has renamed (Count)
system.o3Cpu7.rename.lookups                190005676                       # Number of register rename lookups that rename has made (Count)
system.o3Cpu7.rename.intLookups              47211780                       # Number of integer rename lookups (Count)
system.o3Cpu7.rename.fpLookups               52751890                       # Number of floating rename lookups (Count)
system.o3Cpu7.rename.committedMaps           80322565                       # Number of HB maps that are committed (Count)
system.o3Cpu7.rename.undoneMaps                710827                       # Number of HB maps that are undone due to squashing (Count)
system.o3Cpu7.rename.serializing                 3811                       # count of serializing insts renamed (Count)
system.o3Cpu7.rename.tempSerializing             4032                       # count of temporary serializing insts renamed (Count)
system.o3Cpu7.rename.skidInsts               31913419                       # count of insts added to the skid buffer (Count)
system.o3Cpu7.rob.reads                     384309897                       # The number of ROB reads (Count)
system.o3Cpu7.rob.writes                    124816328                       # The number of ROB writes (Count)
system.o3Cpu7.thread_0.numInsts              37332656                       # Number of Instructions committed (Count)
system.o3Cpu7.thread_0.numOps                62007499                       # Number of Ops committed (Count)
system.o3Cpu7.thread_0.numMemRefs                   0                       # Number of Memory References (Count)
system.pc.bad_addr.power_state.pwrStateResidencyTicks::UNDEFINED  71127024800                       # Cumulative time (in ticks) in various power states (Tick)
system.pc.com_1.power_state.pwrStateResidencyTicks::UNDEFINED  71127024800                       # Cumulative time (in ticks) in various power states (Tick)
system.pc.default_bus.power_state.pwrStateResidencyTicks::UNDEFINED  71127024800                       # Cumulative time (in ticks) in various power states (Tick)
system.pc.empty_isa.power_state.pwrStateResidencyTicks::UNDEFINED  71127024800                       # Cumulative time (in ticks) in various power states (Tick)
system.pc.fake_com_2.power_state.pwrStateResidencyTicks::UNDEFINED  71127024800                       # Cumulative time (in ticks) in various power states (Tick)
system.pc.fake_com_3.power_state.pwrStateResidencyTicks::UNDEFINED  71127024800                       # Cumulative time (in ticks) in various power states (Tick)
system.pc.fake_com_4.power_state.pwrStateResidencyTicks::UNDEFINED  71127024800                       # Cumulative time (in ticks) in various power states (Tick)
system.pc.fake_floppy.power_state.pwrStateResidencyTicks::UNDEFINED  71127024800                       # Cumulative time (in ticks) in various power states (Tick)
system.pc.pci_host.power_state.pwrStateResidencyTicks::UNDEFINED  71127024800                       # Cumulative time (in ticks) in various power states (Tick)
system.pc.south_bridge.cmos.power_state.pwrStateResidencyTicks::UNDEFINED  71127024800                       # Cumulative time (in ticks) in various power states (Tick)
system.pc.south_bridge.dma1.power_state.pwrStateResidencyTicks::UNDEFINED  71127024800                       # Cumulative time (in ticks) in various power states (Tick)
system.pc.south_bridge.ide.disks0.IdeDisk.dmaReadFullPages            0                       # Number of full page size DMA reads (not PRD). (Count)
system.pc.south_bridge.ide.disks0.IdeDisk.dmaReadBytes            0                       # Number of bytes transfered via DMA reads (not PRD). (Byte)
system.pc.south_bridge.ide.disks0.IdeDisk.dmaReadTxs            0                       # Number of DMA read transactions (not PRD). (Count)
system.pc.south_bridge.ide.disks0.IdeDisk.dmaWriteFullPages            0                       # Number of full page size DMA writes. (Count)
system.pc.south_bridge.ide.disks0.IdeDisk.dmaWriteBytes            0                       # Number of bytes transfered via DMA writes. (Byte)
system.pc.south_bridge.ide.disks0.IdeDisk.dmaWriteTxs            0                       # Number of DMA write transactions. (Count)
system.pc.south_bridge.ide.disks1.IdeDisk.dmaReadFullPages            0                       # Number of full page size DMA reads (not PRD). (Count)
system.pc.south_bridge.ide.disks1.IdeDisk.dmaReadBytes            0                       # Number of bytes transfered via DMA reads (not PRD). (Byte)
system.pc.south_bridge.ide.disks1.IdeDisk.dmaReadTxs            0                       # Number of DMA read transactions (not PRD). (Count)
system.pc.south_bridge.ide.disks1.IdeDisk.dmaWriteFullPages            0                       # Number of full page size DMA writes. (Count)
system.pc.south_bridge.ide.disks1.IdeDisk.dmaWriteBytes            0                       # Number of bytes transfered via DMA writes. (Byte)
system.pc.south_bridge.ide.disks1.IdeDisk.dmaWriteTxs            0                       # Number of DMA write transactions. (Count)
system.pc.south_bridge.ide.power_state.pwrStateResidencyTicks::UNDEFINED  71127024800                       # Cumulative time (in ticks) in various power states (Tick)
system.pc.south_bridge.io_apic.power_state.pwrStateResidencyTicks::UNDEFINED  71127024800                       # Cumulative time (in ticks) in various power states (Tick)
system.pc.south_bridge.keyboard.power_state.pwrStateResidencyTicks::UNDEFINED  71127024800                       # Cumulative time (in ticks) in various power states (Tick)
system.pc.south_bridge.pic1.power_state.pwrStateResidencyTicks::UNDEFINED  71127024800                       # Cumulative time (in ticks) in various power states (Tick)
system.pc.south_bridge.pic2.power_state.pwrStateResidencyTicks::UNDEFINED  71127024800                       # Cumulative time (in ticks) in various power states (Tick)
system.pc.south_bridge.pit.power_state.pwrStateResidencyTicks::UNDEFINED  71127024800                       # Cumulative time (in ticks) in various power states (Tick)
system.pc.south_bridge.speaker.power_state.pwrStateResidencyTicks::UNDEFINED  71127024800                       # Cumulative time (in ticks) in various power states (Tick)
system.workload.inst.arm                            0                       # number of arm instructions executed (Count)
system.workload.inst.quiesce                        0                       # number of quiesce instructions executed (Count)

---------- End Simulation Statistics   ----------
