
---------- Begin Simulation Statistics ----------
simSeconds                                   0.043292                       # Number of seconds simulated (Second)
simTicks                                  43292070000                       # Number of ticks simulated (Tick)
finalTick                                104672996170600                       # Number of ticks from beginning of simulation (restored from checkpoints and never reset) (Tick)
simFreq                                  1000000000000                       # The number of ticks per simulated second ((Tick/Second))
hostSeconds                                   9877.52                       # Real time elapsed on the host (Second)
hostTickRate                                  4382889                       # The number of ticks simulated per host second (ticks/s) ((Tick/Second))
hostMemory                                   19994296                       # Number of bytes of host memory used (Byte)
simInsts                                    861977600                       # Number of instructions simulated (Count)
simOps                                     1805206734                       # Number of ops (including micro ops) simulated (Count)
hostInstRate                                    87267                       # Simulator instruction rate (inst/s) ((Count/Second))
hostOpRate                                     182759                       # Simulator op (including micro ops) rate (op/s) ((Count/Second))
system.caches.delayHistogram::bucket_size          128                       # delay histogram for all message (Unspecified)
system.caches.delayHistogram::max_bucket         1279                       # delay histogram for all message (Unspecified)
system.caches.delayHistogram::samples         9388870                       # delay histogram for all message (Unspecified)
system.caches.delayHistogram::mean           1.086647                       # delay histogram for all message (Unspecified)
system.caches.delayHistogram::stdev          2.782129                       # delay histogram for all message (Unspecified)
system.caches.delayHistogram             |     9388867    100.00%    100.00% |           1      0.00%    100.00% |           0      0.00%    100.00% |           1      0.00%    100.00% |           0      0.00%    100.00% |           0      0.00%    100.00% |           1      0.00%    100.00% |           0      0.00%    100.00% |           0      0.00%    100.00% |           0      0.00%    100.00% # delay histogram for all message (Unspecified)
system.caches.delayHistogram::total           9388870                       # delay histogram for all message (Unspecified)
system.caches.m_outstandReqHistSeqr::bucket_size            2                       (Unspecified)
system.caches.m_outstandReqHistSeqr::max_bucket           19                       (Unspecified)
system.caches.m_outstandReqHistSeqr::samples    476498754                       (Unspecified)
system.caches.m_outstandReqHistSeqr::mean     1.405371                       (Unspecified)
system.caches.m_outstandReqHistSeqr::gmean     1.296013                       (Unspecified)
system.caches.m_outstandReqHistSeqr::stdev     0.632254                       (Unspecified)
system.caches.m_outstandReqHistSeqr      |   318241977     66.79%     66.79% |   156504885     32.84%     99.63% |     1698422      0.36%     99.99% |       26273      0.01%     99.99% |       23135      0.00%    100.00% |        3958      0.00%    100.00% |          86      0.00%    100.00% |          13      0.00%    100.00% |           5      0.00%    100.00% |           0      0.00%    100.00% (Unspecified)
system.caches.m_outstandReqHistSeqr::total    476498754                       (Unspecified)
system.caches.m_latencyHistSeqr::bucket_size         1024                       (Unspecified)
system.caches.m_latencyHistSeqr::max_bucket        10239                       (Unspecified)
system.caches.m_latencyHistSeqr::samples    476525063                       (Unspecified)
system.caches.m_latencyHistSeqr::mean        3.081634                       (Unspecified)
system.caches.m_latencyHistSeqr::gmean       1.018563                       (Unspecified)
system.caches.m_latencyHistSeqr::stdev      45.768412                       (Unspecified)
system.caches.m_latencyHistSeqr          |   476215123     99.93%     99.93% |      284688      0.06%     99.99% |       24102      0.01%    100.00% |        1073      0.00%    100.00% |          61      0.00%    100.00% |          14      0.00%    100.00% |           2      0.00%    100.00% |           0      0.00%    100.00% |           0      0.00%    100.00% |           0      0.00%    100.00% (Unspecified)
system.caches.m_latencyHistSeqr::total      476525063                       (Unspecified)
system.caches.m_hitLatencyHistSeqr::bucket_size          512                       (Unspecified)
system.caches.m_hitLatencyHistSeqr::max_bucket         5119                       (Unspecified)
system.caches.m_hitLatencyHistSeqr::samples    475124718                       (Unspecified)
system.caches.m_hitLatencyHistSeqr::mean     1.000452                       (Unspecified)
system.caches.m_hitLatencyHistSeqr::gmean     1.000043                       (Unspecified)
system.caches.m_hitLatencyHistSeqr::stdev     0.659204                       (Unspecified)
system.caches.m_hitLatencyHistSeqr       |   475124554    100.00%    100.00% |         102      0.00%    100.00% |          43      0.00%    100.00% |          11      0.00%    100.00% |           7      0.00%    100.00% |           1      0.00%    100.00% |           0      0.00%    100.00% |           0      0.00%    100.00% |           0      0.00%    100.00% |           0      0.00%    100.00% (Unspecified)
system.caches.m_hitLatencyHistSeqr::total    475124718                       (Unspecified)
system.caches.m_missLatencyHistSeqr::bucket_size         1024                       (Unspecified)
system.caches.m_missLatencyHistSeqr::max_bucket        10239                       (Unspecified)
system.caches.m_missLatencyHistSeqr::samples      1400345                       (Unspecified)
system.caches.m_missLatencyHistSeqr::mean   709.208040                       (Unspecified)
system.caches.m_missLatencyHistSeqr::gmean   515.142569                       (Unspecified)
system.caches.m_missLatencyHistSeqr::stdev   461.077825                       (Unspecified)
system.caches.m_missLatencyHistSeqr      |     1090467     77.87%     77.87% |      284634     20.33%     98.20% |       24094      1.72%     99.92% |        1073      0.08%     99.99% |          61      0.00%    100.00% |          14      0.00%    100.00% |           2      0.00%    100.00% |           0      0.00%    100.00% |           0      0.00%    100.00% |           0      0.00%    100.00% (Unspecified)
system.caches.m_missLatencyHistSeqr::total      1400345                       (Unspecified)
system.caches.delayVCHist.vnet_0::bucket_size          128                       # delay histogram for vnet_0 (Unspecified)
system.caches.delayVCHist.vnet_0::max_bucket         1279                       # delay histogram for vnet_0 (Unspecified)
system.caches.delayVCHist.vnet_0::samples      3980106                       # delay histogram for vnet_0 (Unspecified)
system.caches.delayVCHist.vnet_0::mean       2.530656                       # delay histogram for vnet_0 (Unspecified)
system.caches.delayVCHist.vnet_0::stdev      3.799668                       # delay histogram for vnet_0 (Unspecified)
system.caches.delayVCHist.vnet_0         |     3980103    100.00%    100.00% |           1      0.00%    100.00% |           0      0.00%    100.00% |           1      0.00%    100.00% |           0      0.00%    100.00% |           0      0.00%    100.00% |           1      0.00%    100.00% |           0      0.00%    100.00% |           0      0.00%    100.00% |           0      0.00%    100.00% # delay histogram for vnet_0 (Unspecified)
system.caches.delayVCHist.vnet_0::total       3980106                       # delay histogram for vnet_0 (Unspecified)
system.caches.delayVCHist.vnet_1::bucket_size            4                       # delay histogram for vnet_1 (Unspecified)
system.caches.delayVCHist.vnet_1::max_bucket           39                       # delay histogram for vnet_1 (Unspecified)
system.caches.delayVCHist.vnet_1::samples      5342995                       # delay histogram for vnet_1 (Unspecified)
system.caches.delayVCHist.vnet_1::mean       0.024349                       # delay histogram for vnet_1 (Unspecified)
system.caches.delayVCHist.vnet_1::stdev      0.387705                       # delay histogram for vnet_1 (Unspecified)
system.caches.delayVCHist.vnet_1         |     5323829     99.64%     99.64% |       16158      0.30%     99.94% |        2172      0.04%     99.98% |         415      0.01%     99.99% |         346      0.01%    100.00% |          47      0.00%    100.00% |          20      0.00%    100.00% |           5      0.00%    100.00% |           2      0.00%    100.00% |           1      0.00%    100.00% # delay histogram for vnet_1 (Unspecified)
system.caches.delayVCHist.vnet_1::total       5342995                       # delay histogram for vnet_1 (Unspecified)
system.caches.delayVCHist.vnet_2::bucket_size            1                       # delay histogram for vnet_2 (Unspecified)
system.caches.delayVCHist.vnet_2::max_bucket            9                       # delay histogram for vnet_2 (Unspecified)
system.caches.delayVCHist.vnet_2::samples        65769                       # delay histogram for vnet_2 (Unspecified)
system.caches.delayVCHist.vnet_2::mean       0.000243                       # delay histogram for vnet_2 (Unspecified)
system.caches.delayVCHist.vnet_2::stdev      0.024660                       # delay histogram for vnet_2 (Unspecified)
system.caches.delayVCHist.vnet_2         |       65762     99.99%     99.99% |           0      0.00%     99.99% |           6      0.01%    100.00% |           0      0.00%    100.00% |           1      0.00%    100.00% |           0      0.00%    100.00% |           0      0.00%    100.00% |           0      0.00%    100.00% |           0      0.00%    100.00% |           0      0.00%    100.00% # delay histogram for vnet_2 (Unspecified)
system.caches.delayVCHist.vnet_2::total         65769                       # delay histogram for vnet_2 (Unspecified)
system.caches.L1Cache_Controller.Load    |    35426432     12.36%     12.36% |    36479482     12.72%     25.08% |    35888560     12.52%     37.60% |    35817117     12.49%     50.09% |    35886310     12.52%     62.61% |    35848541     12.50%     75.11% |    35576195     12.41%     87.52% |    35790699     12.48%    100.00% (Unspecified)
system.caches.L1Cache_Controller.Load::total    286713336                       (Unspecified)
system.caches.L1Cache_Controller.Ifetch  |    17778747     12.32%     12.32% |    18228462     12.63%     24.96% |    18113439     12.55%     37.51% |    18014867     12.49%     49.99% |    18021884     12.49%     62.49% |    18012035     12.48%     74.97% |    18117045     12.56%     87.53% |    17998994     12.47%    100.00% (Unspecified)
system.caches.L1Cache_Controller.Ifetch::total    144285473                       (Unspecified)
system.caches.L1Cache_Controller.Store   |     5514938     12.11%     12.11% |     5402494     11.87%     23.98% |     5945654     13.06%     37.04% |     5711090     12.54%     49.58% |     5622348     12.35%     61.93% |     5645157     12.40%     74.33% |     5984595     13.15%     87.48% |     5699979     12.52%    100.00% (Unspecified)
system.caches.L1Cache_Controller.Store::total     45526255                       (Unspecified)
system.caches.L1Cache_Controller.Inv     |       10647     16.67%     16.67% |        8208     12.85%     29.51% |        4382      6.86%     36.37% |        9063     14.19%     50.56% |        8206     12.84%     63.40% |        8539     13.37%     76.77% |        5255      8.23%     85.00% |        9586     15.00%    100.00% (Unspecified)
system.caches.L1Cache_Controller.Inv::total        63886                       (Unspecified)
system.caches.L1Cache_Controller.L1_Replacement |      158529     11.49%     11.49% |      125850      9.12%     20.62% |      204716     14.84%     35.46% |      175731     12.74%     48.20% |      163551     11.86%     60.06% |      166848     12.10%     72.15% |      209338     15.18%     87.33% |      174768     12.67%    100.00% (Unspecified)
system.caches.L1Cache_Controller.L1_Replacement::total      1379331                       (Unspecified)
system.caches.L1Cache_Controller.Fwd_GETX |          57     11.61%     11.61% |          20      4.07%     15.68% |          74     15.07%     30.75% |          41      8.35%     39.10% |          37      7.54%     46.64% |          50     10.18%     56.82% |         145     29.53%     86.35% |          67     13.65%    100.00% (Unspecified)
system.caches.L1Cache_Controller.Fwd_GETX::total          491                       (Unspecified)
system.caches.L1Cache_Controller.Fwd_GETS |         568     40.80%     40.80% |         200     14.37%     55.17% |         117      8.41%     63.58% |          63      4.53%     68.10% |         156     11.21%     79.31% |          95      6.82%     86.14% |         113      8.12%     94.25% |          80      5.75%    100.00% (Unspecified)
system.caches.L1Cache_Controller.Fwd_GETS::total         1392                       (Unspecified)
system.caches.L1Cache_Controller.Data    |          61     71.76%     71.76% |           0      0.00%     71.76% |           5      5.88%     77.65% |           4      4.71%     82.35% |           5      5.88%     88.24% |           2      2.35%     90.59% |           5      5.88%     96.47% |           3      3.53%    100.00% (Unspecified)
system.caches.L1Cache_Controller.Data::total           85                       (Unspecified)
system.caches.L1Cache_Controller.Data_Exclusive |        3676     12.80%     12.80% |        2439      8.49%     21.29% |        4407     15.34%     36.64% |        3480     12.12%     48.75% |        3413     11.88%     60.64% |        3376     11.75%     72.39% |        4487     15.62%     88.01% |        3443     11.99%    100.00% (Unspecified)
system.caches.L1Cache_Controller.Data_Exclusive::total        28721                       (Unspecified)
system.caches.L1Cache_Controller.DataS_fromL1 |         228     16.38%     16.38% |         458     32.90%     49.28% |         147     10.56%     59.84% |          84      6.03%     65.88% |         194     13.94%     79.81% |         110      7.90%     87.72% |         124      8.91%     96.62% |          47      3.38%    100.00% (Unspecified)
system.caches.L1Cache_Controller.DataS_fromL1::total         1392                       (Unspecified)
system.caches.L1Cache_Controller.Data_all_Acks |      157733     11.52%     11.52% |      125677      9.18%     20.69% |      202533     14.79%     35.48% |      174612     12.75%     48.23% |      162415     11.86%     60.09% |      165831     12.11%     72.19% |      207121     15.12%     87.32% |      173739     12.68%    100.00% (Unspecified)
system.caches.L1Cache_Controller.Data_all_Acks::total      1369661                       (Unspecified)
system.caches.L1Cache_Controller.Ack     |        1404     79.55%     79.55% |          22      1.25%     80.79% |          60      3.40%     84.19% |          52      2.95%     87.14% |          49      2.78%     89.92% |          42      2.38%     92.29% |          91      5.16%     97.45% |          45      2.55%    100.00% (Unspecified)
system.caches.L1Cache_Controller.Ack::total         1765                       (Unspecified)
system.caches.L1Cache_Controller.Ack_all |         279     48.86%     48.86% |          18      3.15%     52.01% |          51      8.93%     60.95% |          46      8.06%     69.00% |          38      6.65%     75.66% |          39      6.83%     82.49% |          64     11.21%     93.70% |          36      6.30%    100.00% (Unspecified)
system.caches.L1Cache_Controller.Ack_all::total          571                       (Unspecified)
system.caches.L1Cache_Controller.WB_Ack  |      132824     10.55%     10.55% |      111627      8.87%     19.43% |      193226     15.35%     34.78% |      161298     12.82%     47.60% |      148577     11.81%     59.40% |      152015     12.08%     71.48% |      198831     15.80%     87.28% |      160009     12.72%    100.00% (Unspecified)
system.caches.L1Cache_Controller.WB_Ack::total      1258407                       (Unspecified)
system.caches.L1Cache_Controller.NP.Load |        3656     10.49%     10.49% |        2614      7.50%     18.00% |        5563     15.97%     33.96% |        4472     12.84%     46.80% |        4175     11.98%     58.78% |        4261     12.23%     71.02% |        5692     16.34%     87.35% |        4406     12.65%    100.00% (Unspecified)
system.caches.L1Cache_Controller.NP.Load::total        34839                       (Unspecified)
system.caches.L1Cache_Controller.NP.Ifetch |       20088     35.26%     35.26% |        5082      8.92%     44.18% |        5339      9.37%     53.55% |        5317      9.33%     62.89% |        5455      9.58%     72.46% |        5297      9.30%     81.76% |        5034      8.84%     90.60% |        5358      9.40%    100.00% (Unspecified)
system.caches.L1Cache_Controller.NP.Ifetch::total        56970                       (Unspecified)
system.caches.L1Cache_Controller.NP.Store |      134907     10.48%     10.48% |      118179      9.18%     19.65% |      193841     15.05%     34.70% |      165970     12.89%     47.59% |      153949     11.95%     59.55% |      157317     12.22%     71.76% |      198640     15.42%     87.19% |      165032     12.81%    100.00% (Unspecified)
system.caches.L1Cache_Controller.NP.Store::total      1287835                       (Unspecified)
system.caches.L1Cache_Controller.NP.Inv  |        2550     24.05%     24.05% |         954      9.00%     33.04% |        1262     11.90%     44.94% |        1196     11.28%     56.22% |        1205     11.36%     67.58% |        1161     10.95%     78.53% |        1094     10.32%     88.84% |        1183     11.16%    100.00% (Unspecified)
system.caches.L1Cache_Controller.NP.Inv::total        10605                       (Unspecified)
system.caches.L1Cache_Controller.I.Load  |        1435     16.06%     16.06% |        1302     14.57%     30.63% |         955     10.69%     41.32% |        1055     11.81%     53.12% |        1072     12.00%     65.12% |        1078     12.06%     77.18% |         972     10.88%     88.06% |        1067     11.94%    100.00% (Unspecified)
system.caches.L1Cache_Controller.I.Load::total         8936                       (Unspecified)
system.caches.L1Cache_Controller.I.Ifetch |        1011     12.09%     12.09% |         958     11.46%     23.55% |        1104     13.21%     36.76% |        1050     12.56%     49.32% |        1035     12.38%     61.70% |        1040     12.44%     74.14% |        1107     13.24%     87.38% |        1055     12.62%    100.00% (Unspecified)
system.caches.L1Cache_Controller.I.Ifetch::total         8360                       (Unspecified)
system.caches.L1Cache_Controller.I.Store |         601     20.59%     20.59% |         439     15.04%     35.63% |         291      9.97%     45.60% |         316     10.83%     56.42% |         340     11.65%     68.07% |         326     11.17%     79.24% |         292     10.00%     89.24% |         314     10.76%    100.00% (Unspecified)
system.caches.L1Cache_Controller.I.Store::total         2919                       (Unspecified)
system.caches.L1Cache_Controller.I.L1_Replacement |        4992      8.94%      8.94% |        8533     15.28%     24.22% |        4837      8.66%     32.89% |        7993     14.32%     47.20% |        8537     15.29%     62.49% |        8490     15.21%     77.70% |        4161      7.45%     85.15% |        8292     14.85%    100.00% (Unspecified)
system.caches.L1Cache_Controller.I.L1_Replacement::total        55835                       (Unspecified)
system.caches.L1Cache_Controller.S.Load  |    28560354     12.23%     12.23% |    29444019     12.61%     24.84% |    29238599     12.52%     37.36% |    29387949     12.58%     49.95% |    28970497     12.41%     62.35% |    29415339     12.60%     74.95% |    29133058     12.48%     87.42% |    29367817     12.58%    100.00% (Unspecified)
system.caches.L1Cache_Controller.S.Load::total    233517632                       (Unspecified)
system.caches.L1Cache_Controller.S.Ifetch |    17757648     12.31%     12.31% |    18222422     12.64%     24.95% |    18106996     12.56%     37.50% |    18008500     12.49%     49.99% |    18015394     12.49%     62.48% |    18005698     12.48%     74.97% |    18110904     12.56%     87.52% |    17992581     12.48%    100.00% (Unspecified)
system.caches.L1Cache_Controller.S.Ifetch::total    144220143                       (Unspecified)
system.caches.L1Cache_Controller.S.Store |         218     44.76%     44.76% |          18      3.70%     48.46% |          46      9.45%     57.91% |          42      8.62%     66.53% |          34      6.98%     73.51% |          37      7.60%     81.11% |          59     12.11%     93.22% |          33      6.78%    100.00% (Unspecified)
system.caches.L1Cache_Controller.S.Store::total          487                       (Unspecified)
system.caches.L1Cache_Controller.S.Inv   |        2003     13.01%     13.01% |        1919     12.47%     25.48% |        1873     12.17%     37.65% |        1901     12.35%     50.01% |        1914     12.44%     62.44% |        1917     12.46%     74.90% |        1932     12.55%     87.45% |        1931     12.55%    100.00% (Unspecified)
system.caches.L1Cache_Controller.S.Inv::total        15390                       (Unspecified)
system.caches.L1Cache_Controller.S.L1_Replacement |       20713     31.82%     31.82% |        5690      8.74%     40.56% |        6653     10.22%     50.79% |        6440      9.89%     60.68% |        6437      9.89%     70.57% |        6343      9.75%     80.31% |        6346      9.75%     90.06% |        6467      9.94%    100.00% (Unspecified)
system.caches.L1Cache_Controller.S.L1_Replacement::total        65089                       (Unspecified)
system.caches.L1Cache_Controller.E.Load  |      462731     27.23%     27.23% |      493865     29.06%     56.29% |      218273     12.84%     69.13% |        9269      0.55%     69.68% |      485561     28.57%     98.25% |        9128      0.54%     98.78% |       11268      0.66%     99.45% |        9386      0.55%    100.00% (Unspecified)
system.caches.L1Cache_Controller.E.Load::total      1699481                       (Unspecified)
system.caches.L1Cache_Controller.E.Store |        1254     11.43%     11.43% |         832      7.58%     19.01% |        1797     16.38%     35.39% |        1328     12.10%     47.50% |        1320     12.03%     59.53% |        1327     12.10%     71.63% |        1795     16.36%     87.99% |        1318     12.01%    100.00% (Unspecified)
system.caches.L1Cache_Controller.E.Store::total        10971                       (Unspecified)
system.caches.L1Cache_Controller.E.Inv   |         653     20.20%     20.20% |         518     16.03%     36.23% |         314      9.72%     45.95% |         363     11.23%     57.18% |         372     11.51%     68.69% |         360     11.14%     79.83% |         312      9.65%     89.48% |         340     10.52%    100.00% (Unspecified)
system.caches.L1Cache_Controller.E.Inv::total         3232                       (Unspecified)
system.caches.L1Cache_Controller.E.L1_Replacement |        1451     10.74%     10.74% |         887      6.57%     17.31% |        2190     16.21%     33.52% |        1736     12.85%     46.37% |        1577     11.67%     58.04% |        1625     12.03%     70.07% |        2314     17.13%     87.19% |        1730     12.81%    100.00% (Unspecified)
system.caches.L1Cache_Controller.E.L1_Replacement::total        13510                       (Unspecified)
system.caches.L1Cache_Controller.E.Fwd_GETX |           0      0.00%      0.00% |           1      4.76%      4.76% |           2      9.52%     14.29% |           4     19.05%     33.33% |           3     14.29%     47.62% |           4     19.05%     66.67% |           3     14.29%     80.95% |           4     19.05%    100.00% (Unspecified)
system.caches.L1Cache_Controller.E.Fwd_GETX::total           21                       (Unspecified)
system.caches.L1Cache_Controller.E.Fwd_GETS |         284     36.69%     36.69% |         180     23.26%     59.95% |          74      9.56%     69.51% |          25      3.23%     72.74% |         109     14.08%     86.82% |          44      5.68%     92.51% |          34      4.39%     96.90% |          24      3.10%    100.00% (Unspecified)
system.caches.L1Cache_Controller.E.Fwd_GETS::total          774                       (Unspecified)
system.caches.L1Cache_Controller.M.Load  |     6398256     12.44%     12.44% |     6537682     12.71%     25.14% |     6425170     12.49%     37.63% |     6414372     12.47%     50.10% |     6425005     12.49%     62.58% |     6418735     12.48%     75.06% |     6425205     12.49%     87.55% |     6408023     12.45%    100.00% (Unspecified)
system.caches.L1Cache_Controller.M.Load::total     51452448                       (Unspecified)
system.caches.L1Cache_Controller.M.Store |     5377958     12.16%     12.16% |     5283026     11.95%     24.11% |     5749679     13.00%     37.11% |     5543434     12.53%     49.64% |     5466705     12.36%     62.00% |     5486150     12.41%     74.41% |     5783809     13.08%     87.49% |     5533282     12.51%    100.00% (Unspecified)
system.caches.L1Cache_Controller.M.Store::total     44224043                       (Unspecified)
system.caches.L1Cache_Controller.M.Inv   |        5440     15.70%     15.70% |        4817     13.91%     29.61% |         931      2.69%     32.30% |        5601     16.17%     48.46% |        4712     13.60%     62.07% |        5099     14.72%     76.79% |        1915      5.53%     82.31% |        6127     17.69%    100.00% (Unspecified)
system.caches.L1Cache_Controller.M.Inv::total        34642                       (Unspecified)
system.caches.L1Cache_Controller.M.L1_Replacement |      131373     10.55%     10.55% |      110740      8.90%     19.45% |      191036     15.35%     34.79% |      159562     12.82%     47.61% |      147000     11.81%     59.42% |      150390     12.08%     71.50% |      196517     15.79%     87.29% |      158279     12.71%    100.00% (Unspecified)
system.caches.L1Cache_Controller.M.L1_Replacement::total      1244897                       (Unspecified)
system.caches.L1Cache_Controller.M.Fwd_GETX |          57     12.13%     12.13% |          19      4.04%     16.17% |          72     15.32%     31.49% |          37      7.87%     39.36% |          34      7.23%     46.60% |          46      9.79%     56.38% |         142     30.21%     86.60% |          63     13.40%    100.00% (Unspecified)
system.caches.L1Cache_Controller.M.Fwd_GETX::total          470                       (Unspecified)
system.caches.L1Cache_Controller.M.Fwd_GETS |         284     45.95%     45.95% |          20      3.24%     49.19% |          43      6.96%     56.15% |          38      6.15%     62.30% |          47      7.61%     69.90% |          51      8.25%     78.16% |          79     12.78%     90.94% |          56      9.06%    100.00% (Unspecified)
system.caches.L1Cache_Controller.M.Fwd_GETS::total          618                       (Unspecified)
system.caches.L1Cache_Controller.IS.Inv  |           1      7.69%      7.69% |           0      0.00%      7.69% |           2     15.38%     23.08% |           2     15.38%     38.46% |           2     15.38%     53.85% |           2     15.38%     69.23% |           2     15.38%     84.62% |           2     15.38%    100.00% (Unspecified)
system.caches.L1Cache_Controller.IS.Inv::total           13                       (Unspecified)
system.caches.L1Cache_Controller.IS.Data_Exclusive |        3676     12.80%     12.80% |        2439      8.49%     21.29% |        4407     15.34%     36.64% |        3480     12.12%     48.75% |        3413     11.88%     60.64% |        3376     11.75%     72.39% |        4487     15.62%     88.01% |        3443     11.99%    100.00% (Unspecified)
system.caches.L1Cache_Controller.IS.Data_Exclusive::total        28721                       (Unspecified)
system.caches.L1Cache_Controller.IS.DataS_fromL1 |         228     16.38%     16.38% |         458     32.90%     49.28% |         147     10.56%     59.84% |          84      6.03%     65.88% |         194     13.94%     79.81% |         110      7.90%     87.72% |         124      8.91%     96.62% |          47      3.38%    100.00% (Unspecified)
system.caches.L1Cache_Controller.IS.DataS_fromL1::total         1392                       (Unspecified)
system.caches.L1Cache_Controller.IS.Data_all_Acks |       22285     28.22%     28.22% |        7059      8.94%     37.15% |        8405     10.64%     47.80% |        8328     10.54%     58.34% |        8128     10.29%     68.63% |        8188     10.37%     79.00% |        8192     10.37%     89.37% |        8394     10.63%    100.00% (Unspecified)
system.caches.L1Cache_Controller.IS.Data_all_Acks::total        78979                       (Unspecified)
system.caches.L1Cache_Controller.IM.Data |          61     71.76%     71.76% |           0      0.00%     71.76% |           5      5.88%     77.65% |           4      4.71%     82.35% |           5      5.88%     88.24% |           2      2.35%     90.59% |           5      5.88%     96.47% |           3      3.53%    100.00% (Unspecified)
system.caches.L1Cache_Controller.IM.Data::total           85                       (Unspecified)
system.caches.L1Cache_Controller.IM.Data_all_Acks |      135447     10.49%     10.49% |      118618      9.19%     19.68% |      194126     15.04%     34.73% |      166282     12.88%     47.61% |      154285     11.95%     59.56% |      157641     12.21%     71.78% |      198927     15.41%     87.19% |      165343     12.81%    100.00% (Unspecified)
system.caches.L1Cache_Controller.IM.Data_all_Acks::total      1290669                       (Unspecified)
system.caches.L1Cache_Controller.SM.Inv  |           0      0.00%      0.00% |           0      0.00%      0.00% |           0      0.00%      0.00% |           0      0.00%      0.00% |           1    100.00%    100.00% |           0      0.00%    100.00% |           0      0.00%    100.00% |           0      0.00%    100.00% (Unspecified)
system.caches.L1Cache_Controller.SM.Inv::total            1                       (Unspecified)
system.caches.L1Cache_Controller.SM.Ack  |        1404     79.55%     79.55% |          22      1.25%     80.79% |          60      3.40%     84.19% |          52      2.95%     87.14% |          49      2.78%     89.92% |          42      2.38%     92.29% |          91      5.16%     97.45% |          45      2.55%    100.00% (Unspecified)
system.caches.L1Cache_Controller.SM.Ack::total         1765                       (Unspecified)
system.caches.L1Cache_Controller.SM.Ack_all |         279     48.86%     48.86% |          18      3.15%     52.01% |          51      8.93%     60.95% |          46      8.06%     69.00% |          38      6.65%     75.66% |          39      6.83%     82.49% |          64     11.21%     93.70% |          36      6.30%    100.00% (Unspecified)
system.caches.L1Cache_Controller.SM.Ack_all::total          571                       (Unspecified)
system.caches.L1Cache_Controller.IS_I.Data_all_Acks |           1      7.69%      7.69% |           0      0.00%      7.69% |           2     15.38%     23.08% |           2     15.38%     38.46% |           2     15.38%     53.85% |           2     15.38%     69.23% |           2     15.38%     84.62% |           2     15.38%    100.00% (Unspecified)
system.caches.L1Cache_Controller.IS_I.Data_all_Acks::total           13                       (Unspecified)
system.caches.L1Cache_Controller.M_I.Inv |           0      0.00%      0.00% |           0      0.00%      0.00% |           0      0.00%      0.00% |           0      0.00%      0.00% |           0      0.00%      0.00% |           0      0.00%      0.00% |           0      0.00%      0.00% |           3    100.00%    100.00% (Unspecified)
system.caches.L1Cache_Controller.M_I.Inv::total            3                       (Unspecified)
system.caches.L1Cache_Controller.M_I.WB_Ack |      132824     10.55%     10.55% |      111627      8.87%     19.43% |      193226     15.35%     34.78% |      161298     12.82%     47.60% |      148577     11.81%     59.40% |      152015     12.08%     71.48% |      198831     15.80%     87.29% |      160006     12.71%    100.00% (Unspecified)
system.caches.L1Cache_Controller.M_I.WB_Ack::total      1258404                       (Unspecified)
system.caches.L1Cache_Controller.SINK_WB_ACK.WB_Ack |           0      0.00%      0.00% |           0      0.00%      0.00% |           0      0.00%      0.00% |           0      0.00%      0.00% |           0      0.00%      0.00% |           0      0.00%      0.00% |           0      0.00%      0.00% |           3    100.00%    100.00% (Unspecified)
system.caches.L1Cache_Controller.SINK_WB_ACK.WB_Ack::total            3                       (Unspecified)
system.caches.Directory_Controller.Fetch |        5306      0.41%      0.41% |     1304177     99.59%    100.00% (Unspecified)
system.caches.Directory_Controller.Fetch::total      1309483                       (Unspecified)
system.caches.Directory_Controller.Data  |         309      0.02%      0.02% |     1291439     99.98%    100.00% (Unspecified)
system.caches.Directory_Controller.Data::total      1291748                       (Unspecified)
system.caches.Directory_Controller.Memory_Data |        5306      0.41%      0.41% |     1304176     99.59%    100.00% (Unspecified)
system.caches.Directory_Controller.Memory_Data::total      1309482                       (Unspecified)
system.caches.Directory_Controller.Memory_Ack |         309      0.02%      0.02% |     1291439     99.98%    100.00% (Unspecified)
system.caches.Directory_Controller.Memory_Ack::total      1291748                       (Unspecified)
system.caches.Directory_Controller.CleanReplacement |        5006     28.23%     28.23% |       12729     71.77%    100.00% (Unspecified)
system.caches.Directory_Controller.CleanReplacement::total        17735                       (Unspecified)
system.caches.Directory_Controller.I.Fetch |        5306      0.41%      0.41% |     1304177     99.59%    100.00% (Unspecified)
system.caches.Directory_Controller.I.Fetch::total      1309483                       (Unspecified)
system.caches.Directory_Controller.M.Data |         309      0.02%      0.02% |     1291439     99.98%    100.00% (Unspecified)
system.caches.Directory_Controller.M.Data::total      1291748                       (Unspecified)
system.caches.Directory_Controller.M.CleanReplacement |        5006     28.23%     28.23% |       12729     71.77%    100.00% (Unspecified)
system.caches.Directory_Controller.M.CleanReplacement::total        17735                       (Unspecified)
system.caches.Directory_Controller.IM.Memory_Data |        5306      0.41%      0.41% |     1304176     99.59%    100.00% (Unspecified)
system.caches.Directory_Controller.IM.Memory_Data::total      1309482                       (Unspecified)
system.caches.Directory_Controller.MI.Memory_Ack |         309      0.02%      0.02% |     1291439     99.98%    100.00% (Unspecified)
system.caches.Directory_Controller.MI.Memory_Ack::total      1291748                       (Unspecified)
system.caches.L2Cache_Controller.L1_GET_INSTR |        8087     12.38%     12.38% |        7778     11.90%     24.28% |        7636     11.69%     35.97% |        6065      9.28%     45.25% |        8296     12.70%     57.94% |        9430     14.43%     72.38% |        9750     14.92%     87.30% |        8300     12.70%    100.00% (Unspecified)
system.caches.L2Cache_Controller.L1_GET_INSTR::total        65342                       (Unspecified)
system.caches.L2Cache_Controller.L1_GETS |        7632     17.26%     17.26% |        5741     12.98%     30.24% |        5277     11.93%     42.18% |        5161     11.67%     53.85% |        5030     11.38%     65.23% |        4443     10.05%     75.27% |        4915     11.12%     86.39% |        6018     13.61%    100.00% (Unspecified)
system.caches.L2Cache_Controller.L1_GETS::total        44217                       (Unspecified)
system.caches.L2Cache_Controller.L1_GETX |      161659     12.52%     12.52% |      161453     12.51%     25.03% |      160659     12.45%     37.48% |      161060     12.48%     49.96% |      161209     12.49%     62.44% |      162042     12.55%     75.00% |      161488     12.51%     87.51% |      161230     12.49%    100.00% (Unspecified)
system.caches.L2Cache_Controller.L1_GETX::total      1290800                       (Unspecified)
system.caches.L2Cache_Controller.L1_UPGRADE |          98     19.84%     19.84% |          67     13.56%     33.40% |          47      9.51%     42.91% |          29      5.87%     48.79% |          45      9.11%     57.89% |          43      8.70%     66.60% |         111     22.47%     89.07% |          54     10.93%    100.00% (Unspecified)
system.caches.L2Cache_Controller.L1_UPGRADE::total          494                       (Unspecified)
system.caches.L2Cache_Controller.L1_PUTX |      157735     12.53%     12.53% |      157466     12.51%     25.05% |      156934     12.47%     37.52% |      157011     12.48%     50.00% |      157266     12.50%     62.49% |      157337     12.50%     75.00% |      157169     12.49%     87.49% |      157486     12.51%    100.00% (Unspecified)
system.caches.L2Cache_Controller.L1_PUTX::total      1258404                       (Unspecified)
system.caches.L2Cache_Controller.L1_PUTX_old |           0      0.00%      0.00% |           2     33.33%     33.33% |           0      0.00%     33.33% |           2     33.33%     66.67% |           0      0.00%     66.67% |           0      0.00%     66.67% |           2     33.33%    100.00% |           0      0.00%    100.00% (Unspecified)
system.caches.L2Cache_Controller.L1_PUTX_old::total            6                       (Unspecified)
system.caches.L2Cache_Controller.L2_Replacement |      157525     12.52%     12.52% |      157252     12.50%     25.02% |      157116     12.49%     37.51% |      157076     12.48%     49.99% |      157086     12.48%     62.47% |      157490     12.52%     74.99% |      157215     12.50%     87.49% |      157446     12.51%    100.00% (Unspecified)
system.caches.L2Cache_Controller.L2_Replacement::total      1258206                       (Unspecified)
system.caches.L2Cache_Controller.L2_Replacement_clean |        6575     12.82%     12.82% |        6554     12.78%     25.60% |        5802     11.32%     36.92% |        6406     12.49%     49.41% |        6276     12.24%     61.65% |        6642     12.95%     74.60% |        6523     12.72%     87.33% |        6499     12.67%    100.00% (Unspecified)
system.caches.L2Cache_Controller.L2_Replacement_clean::total        51277                       (Unspecified)
system.caches.L2Cache_Controller.Mem_Data |      164100     12.53%     12.53% |      163805     12.51%     25.04% |      162918     12.44%     37.48% |      163482     12.48%     49.97% |      163362     12.48%     62.44% |      164132     12.53%     74.98% |      163738     12.50%     87.48% |      163945     12.52%    100.00% (Unspecified)
system.caches.L2Cache_Controller.Mem_Data::total      1309482                       (Unspecified)
system.caches.L2Cache_Controller.Mem_Ack |      164100     12.53%     12.53% |      163806     12.51%     25.04% |      162918     12.44%     37.48% |      163482     12.48%     49.97% |      163362     12.48%     62.44% |      164132     12.53%     74.98% |      163738     12.50%     87.48% |      163945     12.52%    100.00% (Unspecified)
system.caches.L2Cache_Controller.Mem_Ack::total      1309483                       (Unspecified)
system.caches.L2Cache_Controller.WB_Data |        4522     12.82%     12.82% |        4312     12.23%     25.05% |        3829     10.86%     35.91% |        4460     12.65%     48.56% |        4255     12.07%     60.62% |        4776     13.54%     74.17% |        4517     12.81%     86.98% |        4592     13.02%    100.00% (Unspecified)
system.caches.L2Cache_Controller.WB_Data::total        35263                       (Unspecified)
system.caches.L2Cache_Controller.WB_Data_clean |         148     19.12%     19.12% |          77      9.95%     29.07% |          96     12.40%     41.47% |          89     11.50%     52.97% |          91     11.76%     64.73% |          72      9.30%     74.03% |          85     10.98%     85.01% |         116     14.99%    100.00% (Unspecified)
system.caches.L2Cache_Controller.WB_Data_clean::total          774                       (Unspecified)
system.caches.L2Cache_Controller.Ack     |        2734     14.70%     14.70% |        2156     11.59%     26.30% |        2285     12.29%     38.59% |        2241     12.05%     50.64% |        2032     10.93%     61.56% |        2311     12.43%     73.99% |        2477     13.32%     87.31% |        2359     12.69%    100.00% (Unspecified)
system.caches.L2Cache_Controller.Ack::total        18595                       (Unspecified)
system.caches.L2Cache_Controller.Ack_all |        1256     14.28%     14.28% |        1202     13.67%     27.94% |        1006     11.44%     39.38% |         971     11.04%     50.42% |        1038     11.80%     62.22% |        1072     12.19%     74.41% |        1210     13.76%     88.17% |        1041     11.83%    100.00% (Unspecified)
system.caches.L2Cache_Controller.Ack_all::total         8796                       (Unspecified)
system.caches.L2Cache_Controller.Unblock |         302     21.70%     21.70% |         140     10.06%     31.75% |         145     10.42%     42.17% |         124      8.91%     51.08% |         165     11.85%     62.93% |         120      8.62%     71.55% |         217     15.59%     87.14% |         179     12.86%    100.00% (Unspecified)
system.caches.L2Cache_Controller.Unblock::total         1392                       (Unspecified)
system.caches.L2Cache_Controller.Exclusive_Unblock |      165615     12.55%     12.55% |      165192     12.51%     25.06% |      163953     12.42%     37.48% |      164635     12.47%     49.96% |      164830     12.49%     62.44% |      165408     12.53%     74.97% |      165071     12.51%     87.48% |      165257     12.52%    100.00% (Unspecified)
system.caches.L2Cache_Controller.Exclusive_Unblock::total      1319961                       (Unspecified)
system.caches.L2Cache_Controller.NP.L1_GET_INSTR |         625     13.54%     13.54% |         607     13.15%     26.68% |         564     12.22%     38.90% |         552     11.96%     50.86% |         520     11.26%     62.12% |         580     12.56%     74.68% |         609     13.19%     87.87% |         560     12.13%    100.00% (Unspecified)
system.caches.L2Cache_Controller.NP.L1_GET_INSTR::total         4617                       (Unspecified)
system.caches.L2Cache_Controller.NP.L1_GETS |        3133     13.29%     13.29% |        2938     12.46%     25.75% |        2712     11.50%     37.25% |        2995     12.70%     49.96% |        2819     11.96%     61.91% |        2805     11.90%     73.81% |        2937     12.46%     86.27% |        3238     13.73%    100.00% (Unspecified)
system.caches.L2Cache_Controller.NP.L1_GETS::total        23577                       (Unspecified)
system.caches.L2Cache_Controller.NP.L1_GETX |      160342     12.51%     12.51% |      160261     12.51%     25.02% |      159642     12.46%     37.48% |      159935     12.48%     49.96% |      160023     12.49%     62.45% |      160747     12.55%     75.00% |      160192     12.50%     87.50% |      160147     12.50%    100.00% (Unspecified)
system.caches.L2Cache_Controller.NP.L1_GETX::total      1281289                       (Unspecified)
system.caches.L2Cache_Controller.NP.L1_PUTX_old |           0      0.00%      0.00% |           1     33.33%     33.33% |           0      0.00%     33.33% |           1     33.33%     66.67% |           0      0.00%     66.67% |           0      0.00%     66.67% |           1     33.33%    100.00% |           0      0.00%    100.00% (Unspecified)
system.caches.L2Cache_Controller.NP.L1_PUTX_old::total            3                       (Unspecified)
system.caches.L2Cache_Controller.SS.L1_GET_INSTR |        7362     12.31%     12.31% |        7062     11.80%     24.11% |        6961     11.64%     35.75% |        5421      9.06%     44.81% |        7695     12.86%     57.67% |        8747     14.62%     72.29% |        8987     15.02%     87.32% |        7588     12.68%    100.00% (Unspecified)
system.caches.L2Cache_Controller.SS.L1_GET_INSTR::total        59823                       (Unspecified)
system.caches.L2Cache_Controller.SS.L1_GETS |        3209     25.57%     25.57% |        1767     14.08%     39.66% |        1702     13.56%     53.22% |        1222      9.74%     62.96% |        1163      9.27%     72.23% |         862      6.87%     79.10% |        1033      8.23%     87.33% |        1590     12.67%    100.00% (Unspecified)
system.caches.L2Cache_Controller.SS.L1_GETS::total        12548                       (Unspecified)
system.caches.L2Cache_Controller.SS.L1_GETX |          46     54.12%     54.12% |           0      0.00%     54.12% |           0      0.00%     54.12% |           2      2.35%     56.47% |          21     24.71%     81.18% |           4      4.71%     85.88% |          12     14.12%    100.00% |           0      0.00%    100.00% (Unspecified)
system.caches.L2Cache_Controller.SS.L1_GETX::total           85                       (Unspecified)
system.caches.L2Cache_Controller.SS.L1_UPGRADE |          97     19.96%     19.96% |          67     13.79%     33.74% |          46      9.47%     43.21% |          29      5.97%     49.18% |          45      9.26%     58.44% |          43      8.85%     67.28% |         105     21.60%     88.89% |          54     11.11%    100.00% (Unspecified)
system.caches.L2Cache_Controller.SS.L1_UPGRADE::total          486                       (Unspecified)
system.caches.L2Cache_Controller.SS.L2_Replacement |          18     17.65%     17.65% |           2      1.96%     19.61% |           9      8.82%     28.43% |          10      9.80%     38.24% |          16     15.69%     53.92% |           4      3.92%     57.84% |          27     26.47%     84.31% |          16     15.69%    100.00% (Unspecified)
system.caches.L2Cache_Controller.SS.L2_Replacement::total          102                       (Unspecified)
system.caches.L2Cache_Controller.SS.L2_Replacement_clean |         783     14.34%     14.34% |         688     12.60%     26.93% |         676     12.38%     39.31% |         666     12.19%     51.50% |         614     11.24%     62.74% |         658     12.05%     74.79% |         692     12.67%     87.46% |         685     12.54%    100.00% (Unspecified)
system.caches.L2Cache_Controller.SS.L2_Replacement_clean::total         5462                       (Unspecified)
system.caches.L2Cache_Controller.M.L1_GET_INSTR |           3      5.77%      5.77% |           5      9.62%     15.38% |           9     17.31%     32.69% |           6     11.54%     44.23% |          10     19.23%     63.46% |           7     13.46%     76.92% |           7     13.46%     90.38% |           5      9.62%    100.00% (Unspecified)
system.caches.L2Cache_Controller.M.L1_GET_INSTR::total           52                       (Unspecified)
system.caches.L2Cache_Controller.M.L1_GETS |         767     14.24%     14.24% |         769     14.28%     28.52% |         574     10.66%     39.18% |         596     11.07%     50.25% |         777     14.43%     64.68% |         541     10.05%     74.73% |         568     10.55%     85.27% |         793     14.73%    100.00% (Unspecified)
system.caches.L2Cache_Controller.M.L1_GETS::total         5385                       (Unspecified)
system.caches.L2Cache_Controller.M.L1_GETX |        1188     13.36%     13.36% |        1086     12.22%     25.58% |         965     10.85%     36.43% |        1044     11.74%     48.18% |        1104     12.42%     60.60% |        1230     13.84%     74.43% |        1225     13.78%     88.21% |        1048     11.79%    100.00% (Unspecified)
system.caches.L2Cache_Controller.M.L1_GETX::total         8890                       (Unspecified)
system.caches.L2Cache_Controller.M.L2_Replacement |      157298     12.51%     12.51% |      157098     12.50%     25.01% |      157013     12.49%     37.50% |      156954     12.49%     49.99% |      156955     12.49%     62.48% |      157343     12.52%     74.99% |      157069     12.50%     87.49% |      157253     12.51%    100.00% (Unspecified)
system.caches.L2Cache_Controller.M.L2_Replacement::total      1256983                       (Unspecified)
system.caches.L2Cache_Controller.M.L2_Replacement_clean |        1178     13.00%     13.00% |        1257     13.88%     26.88% |        1119     12.35%     39.23% |        1132     12.50%     51.73% |        1188     13.11%     64.84% |         989     10.92%     75.76% |        1074     11.86%     87.61% |        1122     12.39%    100.00% (Unspecified)
system.caches.L2Cache_Controller.M.L2_Replacement_clean::total         9059                       (Unspecified)
system.caches.L2Cache_Controller.MT.L1_GETS |         302     21.70%     21.70% |         140     10.06%     31.75% |         145     10.42%     42.17% |         124      8.91%     51.08% |         165     11.85%     62.93% |         120      8.62%     71.55% |         217     15.59%     87.14% |         179     12.86%    100.00% (Unspecified)
system.caches.L2Cache_Controller.MT.L1_GETS::total         1392                       (Unspecified)
system.caches.L2Cache_Controller.MT.L1_GETX |          81     16.50%     16.50% |          99     20.16%     36.66% |          51     10.39%     47.05% |          75     15.27%     62.32% |          60     12.22%     74.54% |          53     10.79%     85.34% |          48      9.78%     95.11% |          24      4.89%    100.00% (Unspecified)
system.caches.L2Cache_Controller.MT.L1_GETX::total          491                       (Unspecified)
system.caches.L2Cache_Controller.MT.L1_PUTX |      157735     12.53%     12.53% |      157466     12.51%     25.05% |      156934     12.47%     37.52% |      157011     12.48%     50.00% |      157266     12.50%     62.49% |      157337     12.50%     75.00% |      157169     12.49%     87.49% |      157486     12.51%    100.00% (Unspecified)
system.caches.L2Cache_Controller.MT.L1_PUTX::total      1258404                       (Unspecified)
system.caches.L2Cache_Controller.MT.L2_Replacement |         209     18.64%     18.64% |         152     13.56%     32.20% |          94      8.39%     40.59% |         112      9.99%     50.58% |         115     10.26%     60.84% |         143     12.76%     73.60% |         119     10.62%     84.21% |         177     15.79%    100.00% (Unspecified)
system.caches.L2Cache_Controller.MT.L2_Replacement::total         1121                       (Unspecified)
system.caches.L2Cache_Controller.MT.L2_Replacement_clean |        4614     12.55%     12.55% |        4609     12.54%     25.09% |        4007     10.90%     35.99% |        4608     12.54%     48.53% |        4474     12.17%     60.70% |        4995     13.59%     74.29% |        4757     12.94%     87.23% |        4692     12.77%    100.00% (Unspecified)
system.caches.L2Cache_Controller.MT.L2_Replacement_clean::total        36756                       (Unspecified)
system.caches.L2Cache_Controller.M_I.L1_GET_INSTR |           0      0.00%      0.00% |           0      0.00%      0.00% |           0      0.00%      0.00% |           0      0.00%      0.00% |           0      0.00%      0.00% |           0      0.00%      0.00% |           5     45.45%     45.45% |           6     54.55%    100.00% (Unspecified)
system.caches.L2Cache_Controller.M_I.L1_GET_INSTR::total           11                       (Unspecified)
system.caches.L2Cache_Controller.M_I.L1_GETS |          28     10.18%     10.18% |          26      9.45%     19.64% |          38     13.82%     33.45% |          64     23.27%     56.73% |          24      8.73%     65.45% |          39     14.18%     79.64% |          23      8.36%     88.00% |          33     12.00%    100.00% (Unspecified)
system.caches.L2Cache_Controller.M_I.L1_GETS::total          275                       (Unspecified)
system.caches.L2Cache_Controller.M_I.L1_GETX |           1      2.27%      2.27% |           7     15.91%     18.18% |           1      2.27%     20.45% |           4      9.09%     29.55% |           1      2.27%     31.82% |           8     18.18%     50.00% |          11     25.00%     75.00% |          11     25.00%    100.00% (Unspecified)
system.caches.L2Cache_Controller.M_I.L1_GETX::total           44                       (Unspecified)
system.caches.L2Cache_Controller.M_I.Mem_Ack |      164100     12.53%     12.53% |      163806     12.51%     25.04% |      162918     12.44%     37.48% |      163482     12.48%     49.97% |      163362     12.48%     62.44% |      164132     12.53%     74.98% |      163738     12.50%     87.48% |      163945     12.52%    100.00% (Unspecified)
system.caches.L2Cache_Controller.M_I.Mem_Ack::total      1309483                       (Unspecified)
system.caches.L2Cache_Controller.MT_I.WB_Data |         205     18.59%     18.59% |         152     13.78%     32.37% |          92      8.34%     40.71% |         111     10.06%     50.77% |         111     10.06%     60.83% |         143     12.96%     73.80% |         115     10.43%     84.22% |         174     15.78%    100.00% (Unspecified)
system.caches.L2Cache_Controller.MT_I.WB_Data::total         1103                       (Unspecified)
system.caches.L2Cache_Controller.MT_I.Ack_all |           4     22.22%     22.22% |           0      0.00%     22.22% |           2     11.11%     33.33% |           1      5.56%     38.89% |           4     22.22%     61.11% |           0      0.00%     61.11% |           4     22.22%     83.33% |           3     16.67%    100.00% (Unspecified)
system.caches.L2Cache_Controller.MT_I.Ack_all::total           18                       (Unspecified)
system.caches.L2Cache_Controller.MCT_I.L1_PUTX_old |           0      0.00%      0.00% |           1     33.33%     33.33% |           0      0.00%     33.33% |           1     33.33%     66.67% |           0      0.00%     66.67% |           0      0.00%     66.67% |           1     33.33%    100.00% |           0      0.00%    100.00% (Unspecified)
system.caches.L2Cache_Controller.MCT_I.L1_PUTX_old::total            3                       (Unspecified)
system.caches.L2Cache_Controller.MCT_I.WB_Data |        4163     12.41%     12.41% |        4097     12.21%     24.63% |        3688     11.00%     35.62% |        4314     12.86%     48.48% |        4070     12.13%     60.62% |        4585     13.67%     74.29% |        4270     12.73%     87.02% |        4355     12.98%    100.00% (Unspecified)
system.caches.L2Cache_Controller.MCT_I.WB_Data::total        33542                       (Unspecified)
system.caches.L2Cache_Controller.MCT_I.Ack_all |         451     14.03%     14.03% |         512     15.93%     29.96% |         319      9.93%     39.89% |         294      9.15%     49.04% |         404     12.57%     61.61% |         410     12.76%     74.36% |         487     15.15%     89.51% |         337     10.49%    100.00% (Unspecified)
system.caches.L2Cache_Controller.MCT_I.Ack_all::total         3214                       (Unspecified)
system.caches.L2Cache_Controller.I_I.L1_GET_INSTR |           0      0.00%      0.00% |           0      0.00%      0.00% |           0      0.00%      0.00% |           0      0.00%      0.00% |           1    100.00%    100.00% |           0      0.00%    100.00% |           0      0.00%    100.00% |           0      0.00%    100.00% (Unspecified)
system.caches.L2Cache_Controller.I_I.L1_GET_INSTR::total            1                       (Unspecified)
system.caches.L2Cache_Controller.I_I.L1_GETS |           1    100.00%    100.00% |           0      0.00%    100.00% |           0      0.00%    100.00% |           0      0.00%    100.00% |           0      0.00%    100.00% |           0      0.00%    100.00% |           0      0.00%    100.00% |           0      0.00%    100.00% (Unspecified)
system.caches.L2Cache_Controller.I_I.L1_GETS::total            1                       (Unspecified)
system.caches.L2Cache_Controller.I_I.Ack |        2704     14.67%     14.67% |        2154     11.68%     26.35% |        2270     12.31%     38.66% |        2219     12.03%     50.69% |        2014     10.92%     61.62% |        2301     12.48%     74.10% |        2446     13.27%     87.36% |        2330     12.64%    100.00% (Unspecified)
system.caches.L2Cache_Controller.I_I.Ack::total        18438                       (Unspecified)
system.caches.L2Cache_Controller.I_I.Ack_all |         783     14.34%     14.34% |         688     12.60%     26.93% |         676     12.38%     39.31% |         666     12.19%     51.50% |         614     11.24%     62.74% |         658     12.05%     74.79% |         692     12.67%     87.46% |         685     12.54%    100.00% (Unspecified)
system.caches.L2Cache_Controller.I_I.Ack_all::total         5462                       (Unspecified)
system.caches.L2Cache_Controller.S_I.Ack |          30     19.11%     19.11% |           2      1.27%     20.38% |          15      9.55%     29.94% |          22     14.01%     43.95% |          18     11.46%     55.41% |          10      6.37%     61.78% |          31     19.75%     81.53% |          29     18.47%    100.00% (Unspecified)
system.caches.L2Cache_Controller.S_I.Ack::total          157                       (Unspecified)
system.caches.L2Cache_Controller.S_I.Ack_all |          18     17.65%     17.65% |           2      1.96%     19.61% |           9      8.82%     28.43% |          10      9.80%     38.24% |          16     15.69%     53.92% |           4      3.92%     57.84% |          27     26.47%     84.31% |          16     15.69%    100.00% (Unspecified)
system.caches.L2Cache_Controller.S_I.Ack_all::total          102                       (Unspecified)
system.caches.L2Cache_Controller.ISS.L1_GETS |          39     16.18%     16.18% |          27     11.20%     27.39% |          37     15.35%     42.74% |          41     17.01%     59.75% |          19      7.88%     67.63% |          15      6.22%     73.86% |          16      6.64%     80.50% |          47     19.50%    100.00% (Unspecified)
system.caches.L2Cache_Controller.ISS.L1_GETS::total          241                       (Unspecified)
system.caches.L2Cache_Controller.ISS.Mem_Data |        3094     13.26%     13.26% |        2911     12.47%     25.73% |        2675     11.46%     37.20% |        2954     12.66%     49.85% |        2800     12.00%     61.85% |        2790     11.96%     73.81% |        2921     12.52%     86.33% |        3191     13.67%    100.00% (Unspecified)
system.caches.L2Cache_Controller.ISS.Mem_Data::total        23336                       (Unspecified)
system.caches.L2Cache_Controller.IS.L1_GET_INSTR |          97     11.58%     11.58% |         104     12.41%     23.99% |         102     12.17%     36.16% |          86     10.26%     46.42% |          70      8.35%     54.77% |          96     11.46%     66.23% |         142     16.95%     83.17% |         141     16.83%    100.00% (Unspecified)
system.caches.L2Cache_Controller.IS.L1_GET_INSTR::total          838                       (Unspecified)
system.caches.L2Cache_Controller.IS.L1_GETS |         123     19.46%     19.46% |          65     10.28%     29.75% |          67     10.60%     40.35% |         107     16.93%     57.28% |          56      8.86%     66.14% |          47      7.44%     73.58% |          50      7.91%     81.49% |         117     18.51%    100.00% (Unspecified)
system.caches.L2Cache_Controller.IS.L1_GETS::total          632                       (Unspecified)
system.caches.L2Cache_Controller.IS.Mem_Data |         664     13.67%     13.67% |         634     13.05%     26.72% |         601     12.37%     39.09% |         593     12.21%     51.30% |         539     11.10%     62.39% |         595     12.25%     74.64% |         625     12.87%     87.51% |         607     12.49%    100.00% (Unspecified)
system.caches.L2Cache_Controller.IS.Mem_Data::total         4858                       (Unspecified)
system.caches.L2Cache_Controller.IM.L1_GETX |           1    100.00%    100.00% |           0      0.00%    100.00% |           0      0.00%    100.00% |           0      0.00%    100.00% |           0      0.00%    100.00% |           0      0.00%    100.00% |           0      0.00%    100.00% |           0      0.00%    100.00% (Unspecified)
system.caches.L2Cache_Controller.IM.L1_GETX::total            1                       (Unspecified)
system.caches.L2Cache_Controller.IM.Mem_Data |      160342     12.51%     12.51% |      160260     12.51%     25.02% |      159642     12.46%     37.48% |      159935     12.48%     49.96% |      160023     12.49%     62.45% |      160747     12.55%     75.00% |      160192     12.50%     87.50% |      160147     12.50%    100.00% (Unspecified)
system.caches.L2Cache_Controller.IM.Mem_Data::total      1281288                       (Unspecified)
system.caches.L2Cache_Controller.SS_MB.L1_GETS |           0      0.00%      0.00% |           0      0.00%      0.00% |           0      0.00%      0.00% |           0      0.00%      0.00% |           0      0.00%      0.00% |           0      0.00%      0.00% |          33     82.50%     82.50% |           7     17.50%    100.00% (Unspecified)
system.caches.L2Cache_Controller.SS_MB.L1_GETS::total           40                       (Unspecified)
system.caches.L2Cache_Controller.SS_MB.L1_UPGRADE |           0      0.00%      0.00% |           0      0.00%      0.00% |           1    100.00%    100.00% |           0      0.00%    100.00% |           0      0.00%    100.00% |           0      0.00%    100.00% |           0      0.00%    100.00% |           0      0.00%    100.00% (Unspecified)
system.caches.L2Cache_Controller.SS_MB.L1_UPGRADE::total            1                       (Unspecified)
system.caches.L2Cache_Controller.SS_MB.Exclusive_Unblock |         143     25.04%     25.04% |          67     11.73%     36.78% |          46      8.06%     44.83% |          31      5.43%     50.26% |          66     11.56%     61.82% |          47      8.23%     70.05% |         117     20.49%     90.54% |          54      9.46%    100.00% (Unspecified)
system.caches.L2Cache_Controller.SS_MB.Exclusive_Unblock::total          571                       (Unspecified)
system.caches.L2Cache_Controller.MT_MB.L1_GETS |           7     35.00%     35.00% |           0      0.00%     35.00% |           1      5.00%     40.00% |           7     35.00%     75.00% |           1      5.00%     80.00% |           4     20.00%    100.00% |           0      0.00%    100.00% |           0      0.00%    100.00% (Unspecified)
system.caches.L2Cache_Controller.MT_MB.L1_GETS::total           20                       (Unspecified)
system.caches.L2Cache_Controller.MT_MB.Exclusive_Unblock |      165472     12.54%     12.54% |      165125     12.52%     25.06% |      163907     12.42%     37.48% |      164604     12.48%     49.96% |      164764     12.49%     62.44% |      165361     12.53%     74.98% |      164954     12.50%     87.48% |      165203     12.52%    100.00% (Unspecified)
system.caches.L2Cache_Controller.MT_MB.Exclusive_Unblock::total      1319390                       (Unspecified)
system.caches.L2Cache_Controller.MT_IIB.L1_GETS |          19     19.59%     19.59% |           9      9.28%     28.87% |           0      0.00%     28.87% |           4      4.12%     32.99% |           6      6.19%     39.18% |           9      9.28%     48.45% |          37     38.14%     86.60% |          13     13.40%    100.00% (Unspecified)
system.caches.L2Cache_Controller.MT_IIB.L1_GETS::total           97                       (Unspecified)
system.caches.L2Cache_Controller.MT_IIB.WB_Data |         154     25.12%     25.12% |          63     10.28%     35.40% |          46      7.50%     42.90% |          33      5.38%     48.29% |          74     12.07%     60.36% |          48      7.83%     68.19% |         132     21.53%     89.72% |          63     10.28%    100.00% (Unspecified)
system.caches.L2Cache_Controller.MT_IIB.WB_Data::total          613                       (Unspecified)
system.caches.L2Cache_Controller.MT_IIB.WB_Data_clean |         148     19.12%     19.12% |          77      9.95%     29.07% |          96     12.40%     41.47% |          89     11.50%     52.97% |          91     11.76%     64.73% |          72      9.30%     74.03% |          85     10.98%     85.01% |         116     14.99%    100.00% (Unspecified)
system.caches.L2Cache_Controller.MT_IIB.WB_Data_clean::total          774                       (Unspecified)
system.caches.L2Cache_Controller.MT_IIB.Unblock |           0      0.00%      0.00% |           0      0.00%      0.00% |           3     60.00%     60.00% |           2     40.00%    100.00% |           0      0.00%    100.00% |           0      0.00%    100.00% |           0      0.00%    100.00% |           0      0.00%    100.00% (Unspecified)
system.caches.L2Cache_Controller.MT_IIB.Unblock::total            5                       (Unspecified)
system.caches.L2Cache_Controller.MT_IB.WB_Data |           0      0.00%      0.00% |           0      0.00%      0.00% |           3     60.00%     60.00% |           2     40.00%    100.00% |           0      0.00%    100.00% |           0      0.00%    100.00% |           0      0.00%    100.00% |           0      0.00%    100.00% (Unspecified)
system.caches.L2Cache_Controller.MT_IB.WB_Data::total            5                       (Unspecified)
system.caches.L2Cache_Controller.MT_SB.L1_GETS |           4     44.44%     44.44% |           0      0.00%     44.44% |           1     11.11%     55.56% |           1     11.11%     66.67% |           0      0.00%     66.67% |           1     11.11%     77.78% |           1     11.11%     88.89% |           1     11.11%    100.00% (Unspecified)
system.caches.L2Cache_Controller.MT_SB.L1_GETS::total            9                       (Unspecified)
system.caches.L2Cache_Controller.MT_SB.L1_UPGRADE |           1     14.29%     14.29% |           0      0.00%     14.29% |           0      0.00%     14.29% |           0      0.00%     14.29% |           0      0.00%     14.29% |           0      0.00%     14.29% |           6     85.71%    100.00% |           0      0.00%    100.00% (Unspecified)
system.caches.L2Cache_Controller.MT_SB.L1_UPGRADE::total            7                       (Unspecified)
system.caches.L2Cache_Controller.MT_SB.Unblock |         302     21.77%     21.77% |         140     10.09%     31.87% |         142     10.24%     42.11% |         122      8.80%     50.90% |         165     11.90%     62.80% |         120      8.65%     71.45% |         217     15.65%     87.09% |         179     12.91%    100.00% (Unspecified)
system.caches.L2Cache_Controller.MT_SB.Unblock::total         1387                       (Unspecified)
system.caches.RequestType.LD.latency_hist_seqr::bucket_size         1024                       (Unspecified)
system.caches.RequestType.LD.latency_hist_seqr::max_bucket        10239                       (Unspecified)
system.caches.RequestType.LD.latency_hist_seqr::samples    286713336                       (Unspecified)
system.caches.RequestType.LD.latency_hist_seqr::mean     1.078679                       (Unspecified)
system.caches.RequestType.LD.latency_hist_seqr::gmean     1.000760                       (Unspecified)
system.caches.RequestType.LD.latency_hist_seqr::stdev     9.515790                       (Unspecified)
system.caches.RequestType.LD.latency_hist_seqr |   286704952    100.00%    100.00% |        7610      0.00%    100.00% |         716      0.00%    100.00% |          50      0.00%    100.00% |           7      0.00%    100.00% |           1      0.00%    100.00% |           0      0.00%    100.00% |           0      0.00%    100.00% |           0      0.00%    100.00% |           0      0.00%    100.00% (Unspecified)
system.caches.RequestType.LD.latency_hist_seqr::total    286713336                       (Unspecified)
system.caches.RequestType.LD.hit_latency_hist_seqr::bucket_size            1                       (Unspecified)
system.caches.RequestType.LD.hit_latency_hist_seqr::max_bucket            9                       (Unspecified)
system.caches.RequestType.LD.hit_latency_hist_seqr::samples    286669561                       (Unspecified)
system.caches.RequestType.LD.hit_latency_hist_seqr::mean     1.000001                       (Unspecified)
system.caches.RequestType.LD.hit_latency_hist_seqr::gmean     1.000001                       (Unspecified)
system.caches.RequestType.LD.hit_latency_hist_seqr::stdev     0.000941                       (Unspecified)
system.caches.RequestType.LD.hit_latency_hist_seqr |           0      0.00%      0.00% |   286669307    100.00%    100.00% |         254      0.00%    100.00% |           0      0.00%    100.00% |           0      0.00%    100.00% |           0      0.00%    100.00% |           0      0.00%    100.00% |           0      0.00%    100.00% |           0      0.00%    100.00% |           0      0.00%    100.00% (Unspecified)
system.caches.RequestType.LD.hit_latency_hist_seqr::total    286669561                       (Unspecified)
system.caches.RequestType.LD.miss_latency_hist_seqr::bucket_size         1024                       (Unspecified)
system.caches.RequestType.LD.miss_latency_hist_seqr::max_bucket        10239                       (Unspecified)
system.caches.RequestType.LD.miss_latency_hist_seqr::samples        43775                       (Unspecified)
system.caches.RequestType.LD.miss_latency_hist_seqr::mean   516.319383                       (Unspecified)
system.caches.RequestType.LD.miss_latency_hist_seqr::gmean   144.573933                       (Unspecified)
system.caches.RequestType.LD.miss_latency_hist_seqr::stdev   572.338612                       (Unspecified)
system.caches.RequestType.LD.miss_latency_hist_seqr |       35391     80.85%     80.85% |        7610     17.38%     98.23% |         716      1.64%     99.87% |          50      0.11%     99.98% |           7      0.02%    100.00% |           1      0.00%    100.00% |           0      0.00%    100.00% |           0      0.00%    100.00% |           0      0.00%    100.00% |           0      0.00%    100.00% (Unspecified)
system.caches.RequestType.LD.miss_latency_hist_seqr::total        43775                       (Unspecified)
system.caches.RequestType.ST.latency_hist_seqr::bucket_size         1024                       (Unspecified)
system.caches.RequestType.ST.latency_hist_seqr::max_bucket        10239                       (Unspecified)
system.caches.RequestType.ST.latency_hist_seqr::samples     45485469                       (Unspecified)
system.caches.RequestType.ST.latency_hist_seqr::mean    22.204046                       (Unspecified)
system.caches.RequestType.ST.latency_hist_seqr::gmean     1.201184                       (Unspecified)
system.caches.RequestType.ST.latency_hist_seqr::stdev   144.508086                       (Unspecified)
system.caches.RequestType.ST.latency_hist_seqr |    45184994     99.34%     99.34% |      276128      0.61%     99.95% |       23274      0.05%    100.00% |        1015      0.00%    100.00% |          46      0.00%    100.00% |          10      0.00%    100.00% |           2      0.00%    100.00% |           0      0.00%    100.00% |           0      0.00%    100.00% |           0      0.00%    100.00% (Unspecified)
system.caches.RequestType.ST.latency_hist_seqr::total     45485469                       (Unspecified)
system.caches.RequestType.ST.hit_latency_hist_seqr::bucket_size          256                       (Unspecified)
system.caches.RequestType.ST.hit_latency_hist_seqr::max_bucket         2559                       (Unspecified)
system.caches.RequestType.ST.hit_latency_hist_seqr::samples     44198287                       (Unspecified)
system.caches.RequestType.ST.hit_latency_hist_seqr::mean     1.001366                       (Unspecified)
system.caches.RequestType.ST.hit_latency_hist_seqr::gmean     1.000391                       (Unspecified)
system.caches.RequestType.ST.hit_latency_hist_seqr::stdev     0.929843                       (Unspecified)
system.caches.RequestType.ST.hit_latency_hist_seqr |    44198243    100.00%    100.00% |          15      0.00%    100.00% |           9      0.00%    100.00% |          10      0.00%    100.00% |           4      0.00%    100.00% |           3      0.00%    100.00% |           1      0.00%    100.00% |           0      0.00%    100.00% |           1      0.00%    100.00% |           1      0.00%    100.00% (Unspecified)
system.caches.RequestType.ST.hit_latency_hist_seqr::total     44198287                       (Unspecified)
system.caches.RequestType.ST.miss_latency_hist_seqr::bucket_size         1024                       (Unspecified)
system.caches.RequestType.ST.miss_latency_hist_seqr::max_bucket        10239                       (Unspecified)
system.caches.RequestType.ST.miss_latency_hist_seqr::samples      1287182                       (Unspecified)
system.caches.RequestType.ST.miss_latency_hist_seqr::mean   750.245699                       (Unspecified)
system.caches.RequestType.ST.miss_latency_hist_seqr::gmean   641.728376                       (Unspecified)
system.caches.RequestType.ST.miss_latency_hist_seqr::stdev   438.659903                       (Unspecified)
system.caches.RequestType.ST.miss_latency_hist_seqr |      986717     76.66%     76.66% |      276120     21.45%     98.11% |       23272      1.81%     99.92% |        1015      0.08%    100.00% |          46      0.00%    100.00% |          10      0.00%    100.00% |           2      0.00%    100.00% |           0      0.00%    100.00% |           0      0.00%    100.00% |           0      0.00%    100.00% (Unspecified)
system.caches.RequestType.ST.miss_latency_hist_seqr::total      1287182                       (Unspecified)
system.caches.RequestType.IFETCH.latency_hist_seqr::bucket_size          512                       (Unspecified)
system.caches.RequestType.IFETCH.latency_hist_seqr::max_bucket         5119                       (Unspecified)
system.caches.RequestType.IFETCH.latency_hist_seqr::samples    144285473                       (Unspecified)
system.caches.RequestType.IFETCH.latency_hist_seqr::mean     1.016714                       (Unspecified)
system.caches.RequestType.IFETCH.latency_hist_seqr::gmean     1.001281                       (Unspecified)
system.caches.RequestType.IFETCH.latency_hist_seqr::stdev     2.392109                       (Unspecified)
system.caches.RequestType.IFETCH.latency_hist_seqr |   144285104    100.00%    100.00% |         214      0.00%    100.00% |         105      0.00%    100.00% |          39      0.00%    100.00% |           5      0.00%    100.00% |           6      0.00%    100.00% |           0      0.00%    100.00% |           0      0.00%    100.00% |           0      0.00%    100.00% |           0      0.00%    100.00% (Unspecified)
system.caches.RequestType.IFETCH.latency_hist_seqr::total    144285473                       (Unspecified)
system.caches.RequestType.IFETCH.hit_latency_hist_seqr::bucket_size            1                       (Unspecified)
system.caches.RequestType.IFETCH.hit_latency_hist_seqr::max_bucket            9                       (Unspecified)
system.caches.RequestType.IFETCH.hit_latency_hist_seqr::samples    144220143                       (Unspecified)
system.caches.RequestType.IFETCH.hit_latency_hist_seqr::mean            1                       (Unspecified)
system.caches.RequestType.IFETCH.hit_latency_hist_seqr::gmean            1                       (Unspecified)
system.caches.RequestType.IFETCH.hit_latency_hist_seqr |           0      0.00%      0.00% |   144220143    100.00%    100.00% |           0      0.00%    100.00% |           0      0.00%    100.00% |           0      0.00%    100.00% |           0      0.00%    100.00% |           0      0.00%    100.00% |           0      0.00%    100.00% |           0      0.00%    100.00% |           0      0.00%    100.00% (Unspecified)
system.caches.RequestType.IFETCH.hit_latency_hist_seqr::total    144220143                       (Unspecified)
system.caches.RequestType.IFETCH.miss_latency_hist_seqr::bucket_size          512                       (Unspecified)
system.caches.RequestType.IFETCH.miss_latency_hist_seqr::max_bucket         5119                       (Unspecified)
system.caches.RequestType.IFETCH.miss_latency_hist_seqr::samples        65330                       (Unspecified)
system.caches.RequestType.IFETCH.miss_latency_hist_seqr::mean    37.912934                       (Unspecified)
system.caches.RequestType.IFETCH.miss_latency_hist_seqr::gmean    16.889827                       (Unspecified)
system.caches.RequestType.IFETCH.miss_latency_hist_seqr::stdev   106.188668                       (Unspecified)
system.caches.RequestType.IFETCH.miss_latency_hist_seqr |       64961     99.44%     99.44% |         214      0.33%     99.76% |         105      0.16%     99.92% |          39      0.06%     99.98% |           5      0.01%     99.99% |           6      0.01%    100.00% |           0      0.00%    100.00% |           0      0.00%    100.00% |           0      0.00%    100.00% |           0      0.00%    100.00% (Unspecified)
system.caches.RequestType.IFETCH.miss_latency_hist_seqr::total        65330                       (Unspecified)
system.caches.RequestType.RMW_Read.latency_hist_seqr::bucket_size         1024                       (Unspecified)
system.caches.RequestType.RMW_Read.latency_hist_seqr::max_bucket        10239                       (Unspecified)
system.caches.RequestType.RMW_Read.latency_hist_seqr::samples        29405                       (Unspecified)
system.caches.RequestType.RMW_Read.latency_hist_seqr::mean    72.884611                       (Unspecified)
system.caches.RequestType.RMW_Read.latency_hist_seqr::gmean     1.950781                       (Unspecified)
system.caches.RequestType.RMW_Read.latency_hist_seqr::stdev   295.733291                       (Unspecified)
system.caches.RequestType.RMW_Read.latency_hist_seqr |       28624     97.34%     97.34% |         677      2.30%     99.65% |          86      0.29%     99.94% |           7      0.02%     99.96% |           8      0.03%     99.99% |           3      0.01%    100.00% |           0      0.00%    100.00% |           0      0.00%    100.00% |           0      0.00%    100.00% |           0      0.00%    100.00% (Unspecified)
system.caches.RequestType.RMW_Read.latency_hist_seqr::total        29405                       (Unspecified)
system.caches.RequestType.RMW_Read.hit_latency_hist_seqr::bucket_size          512                       (Unspecified)
[...]
system.o3Cpu7.iew.predictedNotTakenIncorrect         1593                       # Number of branches that were predicted not taken incorrectly (Count)
system.o3Cpu7.iew.branchMispredicts              4247                       # Number of branch mispredicts detected at execute (Count)
system.o3Cpu7.iew.instsToCommit             225692690                       # Cumulative count of insts sent to commit (Count)
system.o3Cpu7.iew.writebackCount            225692115                       # Cumulative count of insts written-back (Count)
system.o3Cpu7.iew.producerInst              172692138                       # Number of instructions producing a value (Count)
system.o3Cpu7.iew.consumerInst              269063999                       # Number of instructions consuming a value (Count)
system.o3Cpu7.iew.wbRate                     1.138691                       # Insts written-back per cycle ((Count/Cycle))
system.o3Cpu7.iew.wbFanout                   0.641826                       # Average fanout of values written-back ((Count/Count))
system.o3Cpu7.interrupts.clk_domain.clock         3200                       # Clock period in ticks (Tick)
system.o3Cpu7.lsq0.forwLoads                   133825                       # Number of loads that had data forwarded from stores (Count)
system.o3Cpu7.lsq0.squashedLoads                 6346                       # Number of loads squashed (Count)
system.o3Cpu7.lsq0.ignoredResponses                11                       # Number of memory responses ignored because the instruction is squashed (Count)
system.o3Cpu7.lsq0.memOrderViolation              363                       # Number of memory ordering violations (Count)
system.o3Cpu7.lsq0.squashedStores                2985                       # Number of stores squashed (Count)
system.o3Cpu7.lsq0.rescheduledLoads                28                       # Number of loads that were rescheduled (Count)
system.o3Cpu7.lsq0.blockedByCache                   0                       # Number of times an access to memory failed due to the cache being blocked (Count)
system.o3Cpu7.lsq0.loadToUse::samples        51318843                       # Distribution of cycle latency between the first time a load is issued and its completion (Unspecified)
system.o3Cpu7.lsq0.loadToUse::mean           3.122076                       # Distribution of cycle latency between the first time a load is issued and its completion (Unspecified)
system.o3Cpu7.lsq0.loadToUse::stdev         11.818368                       # Distribution of cycle latency between the first time a load is issued and its completion (Unspecified)
system.o3Cpu7.lsq0.loadToUse::0-9            51308892     99.98%     99.98% # Distribution of cycle latency between the first time a load is issued and its completion (Unspecified)
system.o3Cpu7.lsq0.loadToUse::10-19              1818      0.00%     99.98% # Distribution of cycle latency between the first time a load is issued and its completion (Unspecified)
system.o3Cpu7.lsq0.loadToUse::20-29               780      0.00%     99.99% # Distribution of cycle latency between the first time a load is issued and its completion (Unspecified)
system.o3Cpu7.lsq0.loadToUse::30-39               149      0.00%     99.99% # Distribution of cycle latency between the first time a load is issued and its completion (Unspecified)
system.o3Cpu7.lsq0.loadToUse::40-49               270      0.00%     99.99% # Distribution of cycle latency between the first time a load is issued and its completion (Unspecified)
system.o3Cpu7.lsq0.loadToUse::50-59                53      0.00%     99.99% # Distribution of cycle latency between the first time a load is issued and its completion (Unspecified)
system.o3Cpu7.lsq0.loadToUse::60-69                49      0.00%     99.99% # Distribution of cycle latency between the first time a load is issued and its completion (Unspecified)
system.o3Cpu7.lsq0.loadToUse::70-79               105      0.00%     99.99% # Distribution of cycle latency between the first time a load is issued and its completion (Unspecified)
system.o3Cpu7.lsq0.loadToUse::80-89               282      0.00%     99.99% # Distribution of cycle latency between the first time a load is issued and its completion (Unspecified)
system.o3Cpu7.lsq0.loadToUse::90-99               196      0.00%     99.99% # Distribution of cycle latency between the first time a load is issued and its completion (Unspecified)
system.o3Cpu7.lsq0.loadToUse::100-109               9      0.00%     99.99% # Distribution of cycle latency between the first time a load is issued and its completion (Unspecified)
system.o3Cpu7.lsq0.loadToUse::110-119               6      0.00%     99.99% # Distribution of cycle latency between the first time a load is issued and its completion (Unspecified)
system.o3Cpu7.lsq0.loadToUse::120-129              12      0.00%     99.99% # Distribution of cycle latency between the first time a load is issued and its completion (Unspecified)
system.o3Cpu7.lsq0.loadToUse::130-139              26      0.00%     99.99% # Distribution of cycle latency between the first time a load is issued and its completion (Unspecified)
system.o3Cpu7.lsq0.loadToUse::140-149              16      0.00%     99.99% # Distribution of cycle latency between the first time a load is issued and its completion (Unspecified)
system.o3Cpu7.lsq0.loadToUse::150-159               1      0.00%     99.99% # Distribution of cycle latency between the first time a load is issued and its completion (Unspecified)
system.o3Cpu7.lsq0.loadToUse::160-169               1      0.00%     99.99% # Distribution of cycle latency between the first time a load is issued and its completion (Unspecified)
system.o3Cpu7.lsq0.loadToUse::170-179               2      0.00%     99.99% # Distribution of cycle latency between the first time a load is issued and its completion (Unspecified)
system.o3Cpu7.lsq0.loadToUse::180-189               4      0.00%     99.99% # Distribution of cycle latency between the first time a load is issued and its completion (Unspecified)
system.o3Cpu7.lsq0.loadToUse::190-199               5      0.00%     99.99% # Distribution of cycle latency between the first time a load is issued and its completion (Unspecified)
system.o3Cpu7.lsq0.loadToUse::200-209               5      0.00%     99.99% # Distribution of cycle latency between the first time a load is issued and its completion (Unspecified)
system.o3Cpu7.lsq0.loadToUse::210-219               1      0.00%     99.99% # Distribution of cycle latency between the first time a load is issued and its completion (Unspecified)
system.o3Cpu7.lsq0.loadToUse::220-229               2      0.00%     99.99% # Distribution of cycle latency between the first time a load is issued and its completion (Unspecified)
system.o3Cpu7.lsq0.loadToUse::230-239               7      0.00%     99.99% # Distribution of cycle latency between the first time a load is issued and its completion (Unspecified)
system.o3Cpu7.lsq0.loadToUse::240-249               8      0.00%     99.99% # Distribution of cycle latency between the first time a load is issued and its completion (Unspecified)
system.o3Cpu7.lsq0.loadToUse::250-259              10      0.00%     99.99% # Distribution of cycle latency between the first time a load is issued and its completion (Unspecified)
system.o3Cpu7.lsq0.loadToUse::260-269               6      0.00%     99.99% # Distribution of cycle latency between the first time a load is issued and its completion (Unspecified)
system.o3Cpu7.lsq0.loadToUse::270-279              16      0.00%     99.99% # Distribution of cycle latency between the first time a load is issued and its completion (Unspecified)
system.o3Cpu7.lsq0.loadToUse::280-289              19      0.00%     99.99% # Distribution of cycle latency between the first time a load is issued and its completion (Unspecified)
system.o3Cpu7.lsq0.loadToUse::290-299              29      0.00%     99.99% # Distribution of cycle latency between the first time a load is issued and its completion (Unspecified)
system.o3Cpu7.lsq0.loadToUse::overflows          6064      0.01%    100.00% # Distribution of cycle latency between the first time a load is issued and its completion (Unspecified)
system.o3Cpu7.lsq0.loadToUse::min_value             2                       # Distribution of cycle latency between the first time a load is issued and its completion (Unspecified)
system.o3Cpu7.lsq0.loadToUse::max_value          4580                       # Distribution of cycle latency between the first time a load is issued and its completion (Unspecified)
system.o3Cpu7.lsq0.loadToUse::total          51318843                       # Distribution of cycle latency between the first time a load is issued and its completion (Unspecified)
system.o3Cpu7.mmu.dtb.rdAccesses             51323538                       # TLB accesses on read requests (Count)
system.o3Cpu7.mmu.dtb.wrAccesses              5698458                       # TLB accesses on write requests (Count)
system.o3Cpu7.mmu.dtb.rdMisses                   1238                       # TLB misses on read requests (Count)
system.o3Cpu7.mmu.dtb.wrMisses                    689                       # TLB misses on write requests (Count)
system.o3Cpu7.mmu.dtb.walker.power_state.pwrStateResidencyTicks::UNDEFINED  44306125200                       # Cumulative time (in ticks) in various power states (Tick)
system.o3Cpu7.mmu.itb.rdAccesses                    0                       # TLB accesses on read requests (Count)
system.o3Cpu7.mmu.itb.wrAccesses             17999393                       # TLB accesses on write requests (Count)
system.o3Cpu7.mmu.itb.rdMisses                      0                       # TLB misses on read requests (Count)
system.o3Cpu7.mmu.itb.wrMisses                     77                       # TLB misses on write requests (Count)
system.o3Cpu7.mmu.itb.walker.power_state.pwrStateResidencyTicks::UNDEFINED  44306125200                       # Cumulative time (in ticks) in various power states (Tick)
system.o3Cpu7.power_state.numTransitions            8                       # Number of power state transitions (Count)
system.o3Cpu7.power_state.ticksClkGated::samples            4                       # Distribution of time spent in the clock gated state (Tick)
system.o3Cpu7.power_state.ticksClkGated::mean    912861300                       # Distribution of time spent in the clock gated state (Tick)
system.o3Cpu7.power_state.ticksClkGated::stdev 124238050.444298                       # Distribution of time spent in the clock gated state (Tick)
system.o3Cpu7.power_state.ticksClkGated::1000-5e+10            4    100.00%    100.00% # Distribution of time spent in the clock gated state (Tick)
system.o3Cpu7.power_state.ticksClkGated::min_value    733581000                       # Distribution of time spent in the clock gated state (Tick)
system.o3Cpu7.power_state.ticksClkGated::max_value    998050400                       # Distribution of time spent in the clock gated state (Tick)
system.o3Cpu7.power_state.ticksClkGated::total            4                       # Distribution of time spent in the clock gated state (Tick)
system.o3Cpu7.power_state.pwrStateResidencyTicks::ON  22586576400                       # Cumulative time (in ticks) in various power states (Tick)
system.o3Cpu7.power_state.pwrStateResidencyTicks::CLK_GATED   3651445200                       # Cumulative time (in ticks) in various power states (Tick)
system.o3Cpu7.power_state.pwrStateResidencyTicks::OFF  18068103600                       # Cumulative time (in ticks) in various power states (Tick)
system.o3Cpu7.rename.squashCycles                4491                       # Number of cycles rename is squashing (Cycle)
system.o3Cpu7.rename.idleCycles              20572319                       # Number of cycles rename is idle (Cycle)
system.o3Cpu7.rename.blockCycles             36296958                       # Number of cycles rename is blocking (Cycle)
system.o3Cpu7.rename.serializeStallCycles       300044                       # count of cycles rename stalled for serializing inst (Cycle)
system.o3Cpu7.rename.runCycles               63228270                       # Number of cycles rename is running (Cycle)
system.o3Cpu7.rename.unblockCycles           77772618                       # Number of cycles rename is unblocking (Cycle)
system.o3Cpu7.rename.renamedInsts           225714513                       # Number of instructions processed by rename (Count)
system.o3Cpu7.rename.ROBFullEvents              25794                       # Number of times rename has blocked due to ROB full (Count)
system.o3Cpu7.rename.IQFullEvents               25007                       # Number of times rename has blocked due to IQ full (Count)
system.o3Cpu7.rename.LQFullEvents              134674                       # Number of times rename has blocked due to LQ full (Count)
system.o3Cpu7.rename.SQFullEvents            77576201                       # Number of times rename has blocked due to SQ full (Count)
system.o3Cpu7.rename.fullRegistersEvents           14                       # Number of times there has been no free registers (Count)
system.o3Cpu7.rename.renamedOperands        246413924                       # Number of destination operands rename has renamed (Count)
system.o3Cpu7.rename.lookups                586336290                       # Number of register rename lookups that rename has made (Count)
system.o3Cpu7.rename.intLookups              87581294                       # Number of integer rename lookups (Count)
system.o3Cpu7.rename.fpLookups              320532465                       # Number of floating rename lookups (Count)
system.o3Cpu7.rename.committedMaps          246345509                       # Number of HB maps that are committed (Count)
system.o3Cpu7.rename.undoneMaps                 68391                       # Number of HB maps that are undone due to squashing (Count)
system.o3Cpu7.rename.serializing                 1943                       # count of serializing insts renamed (Count)
system.o3Cpu7.rename.tempSerializing             1991                       # count of temporary serializing insts renamed (Count)
system.o3Cpu7.rename.skidInsts                1223592                       # count of insts added to the skid buffer (Count)
system.o3Cpu7.rob.reads                     389264325                       # The number of ROB reads (Count)
system.o3Cpu7.rob.writes                    451427557                       # The number of ROB writes (Count)
system.o3Cpu7.thread_0.numInsts             107831441                       # Number of Instructions committed (Count)
system.o3Cpu7.thread_0.numOps               225668890                       # Number of Ops committed (Count)
system.o3Cpu7.thread_0.numMemRefs                   0                       # Number of Memory References (Count)
system.pc.bad_addr.power_state.pwrStateResidencyTicks::UNDEFINED  44306125200                       # Cumulative time (in ticks) in various power states (Tick)
system.pc.com_1.power_state.pwrStateResidencyTicks::UNDEFINED  44306125200                       # Cumulative time (in ticks) in various power states (Tick)
system.pc.default_bus.power_state.pwrStateResidencyTicks::UNDEFINED  44306125200                       # Cumulative time (in ticks) in various power states (Tick)
system.pc.empty_isa.power_state.pwrStateResidencyTicks::UNDEFINED  44306125200                       # Cumulative time (in ticks) in various power states (Tick)
system.pc.fake_com_2.power_state.pwrStateResidencyTicks::UNDEFINED  44306125200                       # Cumulative time (in ticks) in various power states (Tick)
system.pc.fake_com_3.power_state.pwrStateResidencyTicks::UNDEFINED  44306125200                       # Cumulative time (in ticks) in various power states (Tick)
system.pc.fake_com_4.power_state.pwrStateResidencyTicks::UNDEFINED  44306125200                       # Cumulative time (in ticks) in various power states (Tick)
system.pc.fake_floppy.power_state.pwrStateResidencyTicks::UNDEFINED  44306125200                       # Cumulative time (in ticks) in various power states (Tick)
system.pc.pci_host.power_state.pwrStateResidencyTicks::UNDEFINED  44306125200                       # Cumulative time (in ticks) in various power states (Tick)
system.pc.south_bridge.cmos.power_state.pwrStateResidencyTicks::UNDEFINED  44306125200                       # Cumulative time (in ticks) in various power states (Tick)
system.pc.south_bridge.dma1.power_state.pwrStateResidencyTicks::UNDEFINED  44306125200                       # Cumulative time (in ticks) in various power states (Tick)
system.pc.south_bridge.ide.disks0.IdeDisk.dmaReadFullPages            0                       # Number of full page size DMA reads (not PRD). (Count)
system.pc.south_bridge.ide.disks0.IdeDisk.dmaReadBytes            0                       # Number of bytes transfered via DMA reads (not PRD). (Byte)
system.pc.south_bridge.ide.disks0.IdeDisk.dmaReadTxs            0                       # Number of DMA read transactions (not PRD). (Count)
system.pc.south_bridge.ide.disks0.IdeDisk.dmaWriteFullPages            0                       # Number of full page size DMA writes. (Count)
system.pc.south_bridge.ide.disks0.IdeDisk.dmaWriteBytes            0                       # Number of bytes transfered via DMA writes. (Byte)
system.pc.south_bridge.ide.disks0.IdeDisk.dmaWriteTxs            0                       # Number of DMA write transactions. (Count)
system.pc.south_bridge.ide.disks1.IdeDisk.dmaReadFullPages            0                       # Number of full page size DMA reads (not PRD). (Count)
system.pc.south_bridge.ide.disks1.IdeDisk.dmaReadBytes            0                       # Number of bytes transfered via DMA reads (not PRD). (Byte)
system.pc.south_bridge.ide.disks1.IdeDisk.dmaReadTxs            0                       # Number of DMA read transactions (not PRD). (Count)
system.pc.south_bridge.ide.disks1.IdeDisk.dmaWriteFullPages            0                       # Number of full page size DMA writes. (Count)
system.pc.south_bridge.ide.disks1.IdeDisk.dmaWriteBytes            0                       # Number of bytes transfered via DMA writes. (Byte)
system.pc.south_bridge.ide.disks1.IdeDisk.dmaWriteTxs            0                       # Number of DMA write transactions. (Count)
system.pc.south_bridge.ide.power_state.pwrStateResidencyTicks::UNDEFINED  44306125200                       # Cumulative time (in ticks) in various power states (Tick)
system.pc.south_bridge.io_apic.power_state.pwrStateResidencyTicks::UNDEFINED  44306125200                       # Cumulative time (in ticks) in various power states (Tick)
system.pc.south_bridge.keyboard.power_state.pwrStateResidencyTicks::UNDEFINED  44306125200                       # Cumulative time (in ticks) in various power states (Tick)
system.pc.south_bridge.pic1.power_state.pwrStateResidencyTicks::UNDEFINED  44306125200                       # Cumulative time (in ticks) in various power states (Tick)
system.pc.south_bridge.pic2.power_state.pwrStateResidencyTicks::UNDEFINED  44306125200                       # Cumulative time (in ticks) in various power states (Tick)
system.pc.south_bridge.pit.power_state.pwrStateResidencyTicks::UNDEFINED  44306125200                       # Cumulative time (in ticks) in various power states (Tick)
system.pc.south_bridge.speaker.power_state.pwrStateResidencyTicks::UNDEFINED  44306125200                       # Cumulative time (in ticks) in various power states (Tick)
system.workload.inst.arm                            0                       # number of arm instructions executed (Count)
system.workload.inst.quiesce                        0                       # number of quiesce instructions executed (Count)

---------- End Simulation Statistics   ----------
