
---------- Begin Simulation Statistics ----------
simSeconds                                   0.053177                       # Number of seconds simulated (Second)
simTicks                                  53176751100                       # Number of ticks simulated (Tick)
finalTick                                263989672500400                       # Number of ticks from beginning of simulation (restored from checkpoints and never reset) (Tick)
simFreq                                  1000000000000                       # The number of ticks per simulated second ((Tick/Second))
hostSeconds                                  10443.28                       # Real time elapsed on the host (Second)
hostTickRate                                  5091957                       # The number of ticks simulated per host second (ticks/s) ((Tick/Second))
hostMemory                                   19912916                       # Number of bytes of host memory used (Byte)
simInsts                                    142447967                       # Number of instructions simulated (Count)
simOps                                      278985079                       # Number of ops (including micro ops) simulated (Count)
hostInstRate                                    13640                       # Simulator instruction rate (inst/s) ((Count/Second))
hostOpRate                                      26714                       # Simulator op (including micro ops) rate (op/s) ((Count/Second))
system.caches.delayHistogram::bucket_size           16                       # delay histogram for all message (Unspecified)
system.caches.delayHistogram::max_bucket          159                       # delay histogram for all message (Unspecified)
system.caches.delayHistogram::samples       113263434                       # delay histogram for all message (Unspecified)
system.caches.delayHistogram::mean           4.842053                       # delay histogram for all message (Unspecified)
system.caches.delayHistogram::stdev         14.397325                       # delay histogram for all message (Unspecified)
system.caches.delayHistogram             |   101537047     89.65%     89.65% |     4725204      4.17%     93.82% |     3008090      2.66%     96.47% |     1950288      1.72%     98.20% |     1211656      1.07%     99.27% |      608341      0.54%     99.80% |      191367      0.17%     99.97% |       29780      0.03%    100.00% |        1641      0.00%    100.00% |          20      0.00%    100.00% # delay histogram for all message (Unspecified)
system.caches.delayHistogram::total         113263434                       # delay histogram for all message (Unspecified)
system.caches.m_outstandReqHistSeqr::bucket_size            2                       (Unspecified)
system.caches.m_outstandReqHistSeqr::max_bucket           19                       (Unspecified)
system.caches.m_outstandReqHistSeqr::samples     60964797                       (Unspecified)
system.caches.m_outstandReqHistSeqr::mean     6.362139                       (Unspecified)
system.caches.m_outstandReqHistSeqr::gmean     5.136196                       (Unspecified)
system.caches.m_outstandReqHistSeqr::stdev     3.793226                       (Unspecified)
system.caches.m_outstandReqHistSeqr      |     4283184      7.03%      7.03% |    11604627     19.03%     26.06% |    13313215     21.84%     47.90% |    11186591     18.35%     66.25% |     8071161     13.24%     79.49% |     5447485      8.94%     88.42% |     3499549      5.74%     94.16% |     2272273      3.73%     97.89% |     1286712      2.11%    100.00% |           0      0.00%    100.00% (Unspecified)
system.caches.m_outstandReqHistSeqr::total     60964797                       (Unspecified)
system.caches.m_latencyHistSeqr::bucket_size         1024                       (Unspecified)
system.caches.m_latencyHistSeqr::max_bucket        10239                       (Unspecified)
system.caches.m_latencyHistSeqr::samples     61000768                       (Unspecified)
system.caches.m_latencyHistSeqr::mean      126.847650                       (Unspecified)
system.caches.m_latencyHistSeqr::gmean       5.829687                       (Unspecified)
system.caches.m_latencyHistSeqr::stdev     345.289057                       (Unspecified)
system.caches.m_latencyHistSeqr          |    58954310     96.65%     96.65% |     1730732      2.84%     99.48% |      296445      0.49%     99.97% |       18179      0.03%    100.00% |         996      0.00%    100.00% |         103      0.00%    100.00% |           3      0.00%    100.00% |           0      0.00%    100.00% |           0      0.00%    100.00% |           0      0.00%    100.00% (Unspecified)
system.caches.m_latencyHistSeqr::total       61000768                       (Unspecified)
system.caches.m_hitLatencyHistSeqr::bucket_size          512                       (Unspecified)
system.caches.m_hitLatencyHistSeqr::max_bucket         5119                       (Unspecified)
system.caches.m_hitLatencyHistSeqr::samples     36349266                       (Unspecified)
system.caches.m_hitLatencyHistSeqr::mean     1.122841                       (Unspecified)
system.caches.m_hitLatencyHistSeqr::gmean     1.054931                       (Unspecified)
system.caches.m_hitLatencyHistSeqr::stdev     6.444990                       (Unspecified)
system.caches.m_hitLatencyHistSeqr       |    36348496    100.00%    100.00% |         377      0.00%    100.00% |         170      0.00%    100.00% |         116      0.00%    100.00% |          80      0.00%    100.00% |          10      0.00%    100.00% |          15      0.00%    100.00% |           2      0.00%    100.00% |           0      0.00%    100.00% |           0      0.00%    100.00% (Unspecified)
system.caches.m_hitLatencyHistSeqr::total     36349266                       (Unspecified)
system.caches.m_missLatencyHistSeqr::bucket_size         1024                       (Unspecified)
system.caches.m_missLatencyHistSeqr::max_bucket        10239                       (Unspecified)
system.caches.m_missLatencyHistSeqr::samples     24651502                       (Unspecified)
system.caches.m_missLatencyHistSeqr::mean   312.232074                       (Unspecified)
system.caches.m_missLatencyHistSeqr::gmean    72.504369                       (Unspecified)
system.caches.m_missLatencyHistSeqr::stdev   487.122249                       (Unspecified)
system.caches.m_missLatencyHistSeqr      |    22605437     91.70%     91.70% |     1730446      7.02%     98.72% |      296355      1.20%     99.92% |       18162      0.07%    100.00% |         996      0.00%    100.00% |         103      0.00%    100.00% |           3      0.00%    100.00% |           0      0.00%    100.00% |           0      0.00%    100.00% |           0      0.00%    100.00% (Unspecified)
system.caches.m_missLatencyHistSeqr::total     24651502                       (Unspecified)
system.caches.delayVCHist.vnet_0::bucket_size            8                       # delay histogram for vnet_0 (Unspecified)
system.caches.delayVCHist.vnet_0::max_bucket           79                       # delay histogram for vnet_0 (Unspecified)
system.caches.delayVCHist.vnet_0::samples     46951379                       # delay histogram for vnet_0 (Unspecified)
system.caches.delayVCHist.vnet_0::mean       0.112885                       # delay histogram for vnet_0 (Unspecified)
system.caches.delayVCHist.vnet_0::stdev      0.806893                       # delay histogram for vnet_0 (Unspecified)
system.caches.delayVCHist.vnet_0         |    46729398     99.53%     99.53% |      211352      0.45%     99.98% |        9248      0.02%    100.00% |        1204      0.00%    100.00% |         116      0.00%    100.00% |          42      0.00%    100.00% |           9      0.00%    100.00% |           3      0.00%    100.00% |           6      0.00%    100.00% |           1      0.00%    100.00% # delay histogram for vnet_0 (Unspecified)
system.caches.delayVCHist.vnet_0::total      46951379                       # delay histogram for vnet_0 (Unspecified)
system.caches.delayVCHist.vnet_1::bucket_size           16                       # delay histogram for vnet_1 (Unspecified)
system.caches.delayVCHist.vnet_1::max_bucket          159                       # delay histogram for vnet_1 (Unspecified)
system.caches.delayVCHist.vnet_1::samples     58197455                       # delay histogram for vnet_1 (Unspecified)
system.caches.delayVCHist.vnet_1::mean       9.332227                       # delay histogram for vnet_1 (Unspecified)
system.caches.delayVCHist.vnet_1::stdev     19.010928                       # delay histogram for vnet_1 (Unspecified)
system.caches.delayVCHist.vnet_1         |    46481697     79.87%     79.87% |     4714752      8.10%     87.97% |     3007932      5.17%     93.14% |     1950276      3.35%     96.49% |     1211649      2.08%     98.57% |      608341      1.05%     99.62% |      191367      0.33%     99.95% |       29780      0.05%    100.00% |        1641      0.00%    100.00% |          20      0.00%    100.00% # delay histogram for vnet_1 (Unspecified)
system.caches.delayVCHist.vnet_1::total      58197455                       # delay histogram for vnet_1 (Unspecified)
system.caches.delayVCHist.vnet_2::bucket_size            1                       # delay histogram for vnet_2 (Unspecified)
system.caches.delayVCHist.vnet_2::max_bucket            9                       # delay histogram for vnet_2 (Unspecified)
system.caches.delayVCHist.vnet_2::samples      8114600                       # delay histogram for vnet_2 (Unspecified)
system.caches.delayVCHist.vnet_2::mean       0.001920                       # delay histogram for vnet_2 (Unspecified)
system.caches.delayVCHist.vnet_2::stdev      0.062073                       # delay histogram for vnet_2 (Unspecified)
system.caches.delayVCHist.vnet_2         |     8106824     99.90%     99.90% |           0      0.00%     99.90% |        7760      0.10%    100.00% |           0      0.00%    100.00% |          16      0.00%    100.00% |           0      0.00%    100.00% |           0      0.00%    100.00% |           0      0.00%    100.00% |           0      0.00%    100.00% |           0      0.00%    100.00% # delay histogram for vnet_2 (Unspecified)
system.caches.delayVCHist.vnet_2::total       8114600                       # delay histogram for vnet_2 (Unspecified)
system.caches.L1Cache_Controller.Load    |     6826531     12.43%     12.43% |     6895094     12.56%     24.99% |     6875952     12.52%     37.51% |     6889491     12.55%     50.05% |     6852783     12.48%     62.53% |     6839570     12.45%     74.98% |     6864485     12.50%     87.48% |     6873052     12.52%    100.00% (Unspecified)
system.caches.L1Cache_Controller.Load::total     54916958                       (Unspecified)
system.caches.L1Cache_Controller.Ifetch  |      624351     12.63%     12.63% |      614972     12.44%     25.07% |      601184     12.16%     37.24% |      613744     12.42%     49.66% |      624576     12.64%     62.29% |      648478     13.12%     75.41% |      618610     12.52%     87.93% |      596609     12.07%    100.00% (Unspecified)
system.caches.L1Cache_Controller.Ifetch::total      4942524                       (Unspecified)
system.caches.L1Cache_Controller.Store   |      153139     13.42%     13.42% |      141025     12.36%     25.77% |      137993     12.09%     37.86% |      140964     12.35%     50.21% |      143014     12.53%     62.74% |      146806     12.86%     75.61% |      141502     12.40%     88.00% |      136937     12.00%    100.00% (Unspecified)
system.caches.L1Cache_Controller.Store::total      1141380                       (Unspecified)
system.caches.L1Cache_Controller.Inv     |      805846     12.60%     12.60% |      794288     12.42%     25.02% |      800769     12.52%     37.55% |      799689     12.51%     50.05% |      797467     12.47%     62.53% |      797678     12.47%     75.00% |      797185     12.47%     87.47% |      801320     12.53%    100.00% (Unspecified)
system.caches.L1Cache_Controller.Inv::total      6394242                       (Unspecified)
system.caches.L1Cache_Controller.L1_Replacement |     3054893     12.46%     12.46% |     3049407     12.43%     24.89% |     3071291     12.52%     37.41% |     3064913     12.50%     49.91% |     3061584     12.48%     62.39% |     3050476     12.44%     74.83% |     3069909     12.52%     87.34% |     3104096     12.66%    100.00% (Unspecified)
system.caches.L1Cache_Controller.L1_Replacement::total     24526569                       (Unspecified)
system.caches.L1Cache_Controller.Fwd_GETX |        1575     12.46%     12.46% |        1596     12.63%     25.09% |        1539     12.18%     37.27% |        1571     12.43%     49.71% |        1593     12.61%     62.31% |        1653     13.08%     75.40% |        1582     12.52%     87.92% |        1527     12.08%    100.00% (Unspecified)
system.caches.L1Cache_Controller.Fwd_GETX::total        12636                       (Unspecified)
system.caches.L1Cache_Controller.Fwd_GETS |      213202     12.48%     12.48% |      212494     12.44%     24.93% |      215190     12.60%     37.53% |      213704     12.51%     50.04% |      212284     12.43%     62.47% |      214453     12.56%     75.03% |      213755     12.52%     87.55% |      212640     12.45%    100.00% (Unspecified)
system.caches.L1Cache_Controller.Fwd_GETS::total      1707722                       (Unspecified)
system.caches.L1Cache_Controller.Data    |          33    100.00%    100.00% |           0      0.00%    100.00% |           0      0.00%    100.00% |           0      0.00%    100.00% |           0      0.00%    100.00% |           0      0.00%    100.00% |           0      0.00%    100.00% |           0      0.00%    100.00% (Unspecified)
system.caches.L1Cache_Controller.Data::total           33                       (Unspecified)
system.caches.L1Cache_Controller.Data_Exclusive |     1390548     12.44%     12.44% |     1385258     12.40%     24.84% |     1403699     12.56%     37.40% |     1400810     12.54%     49.94% |     1392608     12.46%     62.40% |     1391770     12.46%     74.86% |     1395781     12.49%     87.35% |     1413426     12.65%    100.00% (Unspecified)
system.caches.L1Cache_Controller.Data_Exclusive::total     11173900                       (Unspecified)
system.caches.L1Cache_Controller.DataS_fromL1 |      213107     12.48%     12.48% |      212695     12.45%     24.93% |      213414     12.50%     37.43% |      214068     12.54%     49.97% |      213201     12.48%     62.45% |      212040     12.42%     74.87% |      213046     12.48%     87.34% |      216151     12.66%    100.00% (Unspecified)
system.caches.L1Cache_Controller.DataS_fromL1::total      1707722                       (Unspecified)
system.caches.L1Cache_Controller.Data_all_Acks |     1465939     12.47%     12.47% |     1465433     12.47%     24.94% |     1467842     12.49%     37.42% |     1463797     12.45%     49.87% |     1469566     12.50%     62.38% |     1460209     12.42%     74.80% |     1474661     12.54%     87.34% |     1488053     12.66%    100.00% (Unspecified)
system.caches.L1Cache_Controller.Data_all_Acks::total     11755500                       (Unspecified)
system.caches.L1Cache_Controller.Ack     |        2797     18.50%     18.50% |        1788     11.83%     30.33% |        1718     11.36%     41.69% |        1731     11.45%     53.14% |        1763     11.66%     64.80% |        1857     12.28%     77.09% |        1779     11.77%     88.85% |        1685     11.15%    100.00% (Unspecified)
system.caches.L1Cache_Controller.Ack::total        15118                       (Unspecified)
system.caches.L1Cache_Controller.Ack_all |        2059     14.32%     14.32% |        1788     12.43%     26.75% |        1718     11.95%     38.70% |        1731     12.04%     50.74% |        1763     12.26%     63.00% |        1857     12.91%     75.91% |        1779     12.37%     88.28% |        1685     11.72%    100.00% (Unspecified)
system.caches.L1Cache_Controller.Ack_all::total        14380                       (Unspecified)
system.caches.L1Cache_Controller.WB_Ack  |     1171612     12.49%     12.49% |     1160868     12.38%     24.87% |     1176765     12.55%     37.42% |     1175243     12.53%     49.95% |     1168260     12.46%     62.41% |     1165289     12.43%     74.84% |     1170608     12.48%     87.32% |     1189158     12.68%    100.00% (Unspecified)
system.caches.L1Cache_Controller.WB_Ack::total      9377803                       (Unspecified)
system.caches.L1Cache_Controller.NP.Load |     3050621     12.45%     12.45% |     3046950     12.43%     24.88% |     3068649     12.52%     37.41% |     3062246     12.50%     49.90% |     3059072     12.48%     62.39% |     3047854     12.44%     74.83% |     3067248     12.52%     87.34% |     3101599     12.66%    100.00% (Unspecified)
system.caches.L1Cache_Controller.NP.Load::total     24504239                       (Unspecified)
system.caches.L1Cache_Controller.NP.Ifetch |        2153     20.59%     20.59% |        1078     10.31%     30.89% |        1237     11.83%     42.72% |        1239     11.85%     54.57% |        1104     10.56%     65.12% |        1256     12.01%     77.13% |        1275     12.19%     89.32% |        1117     10.68%    100.00% (Unspecified)
system.caches.L1Cache_Controller.NP.Ifetch::total        10459                       (Unspecified)
system.caches.L1Cache_Controller.NP.Store |        2313     17.47%     17.47% |        1554     11.74%     29.21% |        1574     11.89%     41.10% |        1595     12.05%     53.15% |        1576     11.91%     65.06% |        1528     11.54%     76.60% |        1548     11.69%     88.30% |        1549     11.70%    100.00% (Unspecified)
system.caches.L1Cache_Controller.NP.Store::total        13237                       (Unspecified)
system.caches.L1Cache_Controller.NP.Inv  |      763449     12.59%     12.59% |      752487     12.41%     25.01% |      759265     12.52%     37.53% |      758098     12.51%     50.04% |      755534     12.46%     62.50% |      756100     12.47%     74.97% |      756226     12.47%     87.45% |      760852     12.55%    100.00% (Unspecified)
system.caches.L1Cache_Controller.NP.Inv::total      6062011                       (Unspecified)
system.caches.L1Cache_Controller.I.Load  |        3422     11.96%     11.96% |        3787     13.23%     25.19% |        3622     12.66%     37.84% |        3741     13.07%     50.91% |        3608     12.61%     63.52% |        3448     12.05%     75.57% |        3511     12.27%     87.83% |        3482     12.17%    100.00% (Unspecified)
system.caches.L1Cache_Controller.I.Load::total        28621                       (Unspecified)
system.caches.L1Cache_Controller.I.Ifetch |        9521     14.04%     14.04% |        8396     12.38%     26.43% |        8295     12.24%     38.67% |        8284     12.22%     50.89% |        8384     12.37%     63.25% |        8249     12.17%     75.42% |        8296     12.24%     87.66% |        8367     12.34%    100.00% (Unspecified)
system.caches.L1Cache_Controller.I.Ifetch::total        67792                       (Unspecified)
system.caches.L1Cache_Controller.I.Store |        1596     12.46%     12.46% |        1625     12.69%     25.15% |        1573     12.28%     37.43% |        1573     12.28%     49.71% |        1631     12.73%     62.45% |        1684     13.15%     75.59% |        1608     12.55%     88.15% |        1518     11.85%    100.00% (Unspecified)
system.caches.L1Cache_Controller.I.Store::total        12808                       (Unspecified)
system.caches.L1Cache_Controller.I.L1_Replacement |       29347     12.49%     12.49% |       29503     12.56%     25.05% |       29454     12.54%     37.59% |       29482     12.55%     50.14% |       29817     12.69%     62.83% |       29762     12.67%     75.50% |       29032     12.36%     87.86% |       28531     12.14%    100.00% (Unspecified)
system.caches.L1Cache_Controller.I.L1_Replacement::total       234928                       (Unspecified)
system.caches.L1Cache_Controller.S.Load  |     2288823     12.35%     12.35% |     2369445     12.78%     25.13% |     2334705     12.59%     37.72% |     2343583     12.64%     50.36% |     2314741     12.48%     62.84% |     2296369     12.39%     75.23% |     2309964     12.46%     87.69% |     2282642     12.31%    100.00% (Unspecified)
system.caches.L1Cache_Controller.S.Load::total     18540272                       (Unspecified)
system.caches.L1Cache_Controller.S.Ifetch |      612677     12.60%     12.60% |      605498     12.45%     25.04% |      591652     12.16%     37.21% |      604221     12.42%     49.63% |      615088     12.65%     62.27% |      638973     13.14%     75.41% |      609039     12.52%     87.93% |      587125     12.07%    100.00% (Unspecified)
system.caches.L1Cache_Controller.S.Ifetch::total      4864273                       (Unspecified)
system.caches.L1Cache_Controller.S.Store |        2030     14.12%     14.12% |        1789     12.44%     26.56% |        1725     12.00%     38.56% |        1732     12.05%     50.61% |        1767     12.29%     62.89% |        1862     12.95%     75.85% |        1784     12.41%     88.25% |        1689     11.75%    100.00% (Unspecified)
system.caches.L1Cache_Controller.S.Store::total        14378                       (Unspecified)
system.caches.L1Cache_Controller.S.Inv   |       27402     13.05%     13.05% |       26338     12.54%     25.60% |       26129     12.44%     38.04% |       26288     12.52%     50.56% |       26444     12.59%     63.16% |       25991     12.38%     75.54% |       25922     12.35%     87.88% |       25444     12.12%    100.00% (Unspecified)
system.caches.L1Cache_Controller.S.Inv::total       209958                       (Unspecified)
system.caches.L1Cache_Controller.S.L1_Replacement |     1853934     12.43%     12.43% |     1859036     12.47%     24.90% |     1865070     12.51%     37.40% |     1860186     12.47%     49.87% |     1863507     12.50%     62.37% |     1855423     12.44%     74.81% |     1870268     12.54%     87.35% |     1886406     12.65%    100.00% (Unspecified)
system.caches.L1Cache_Controller.S.L1_Replacement::total     14913830                       (Unspecified)
system.caches.L1Cache_Controller.E.Load  |     1339394     12.44%     12.44% |     1341976     12.46%     24.90% |     1339183     12.44%     37.34% |     1347747     12.52%     49.85% |     1340731     12.45%     62.30% |     1351410     12.55%     74.85% |     1351017     12.55%     87.40% |     1356943     12.60%    100.00% (Unspecified)
system.caches.L1Cache_Controller.E.Load::total     10768401                       (Unspecified)
system.caches.L1Cache_Controller.E.Store |        7389     12.95%     12.95% |        7070     12.39%     25.35% |        6899     12.09%     37.44% |        7070     12.39%     49.84% |        7186     12.60%     62.43% |        7421     13.01%     75.44% |        7127     12.49%     87.94% |        6882     12.06%    100.00% (Unspecified)
system.caches.L1Cache_Controller.E.Store::total        57044                       (Unspecified)
system.caches.L1Cache_Controller.E.Inv   |       14681     12.25%     12.25% |       15125     12.62%     24.88% |       15039     12.55%     37.43% |       14946     12.47%     49.90% |       15164     12.66%     62.56% |       15272     12.75%     75.31% |       14792     12.35%     87.65% |       14792     12.35%    100.00% (Unspecified)
system.caches.L1Cache_Controller.E.Inv::total       119811                       (Unspecified)
system.caches.L1Cache_Controller.E.L1_Replacement |     1155595     12.42%     12.42% |     1152519     12.39%     24.81% |     1168507     12.56%     37.37% |     1166911     12.54%     49.91% |     1159742     12.47%     62.38% |     1156630     12.43%     74.81% |     1162198     12.49%     87.31% |     1180996     12.69%    100.00% (Unspecified)
system.caches.L1Cache_Controller.E.L1_Replacement::total      9303098                       (Unspecified)
system.caches.L1Cache_Controller.E.Fwd_GETX |           0      0.00%      0.00% |           4    100.00%    100.00% |           0      0.00%    100.00% |           0      0.00%    100.00% |           0      0.00%    100.00% |           0      0.00%    100.00% |           0      0.00%    100.00% |           0      0.00%    100.00% (Unspecified)
system.caches.L1Cache_Controller.E.Fwd_GETX::total            4                       (Unspecified)
system.caches.L1Cache_Controller.E.Fwd_GETS |      210798     12.45%     12.45% |      210722     12.45%     24.90% |      213510     12.61%     37.51% |      211940     12.52%     50.03% |      210549     12.44%     62.46% |      212615     12.56%     75.02% |      211966     12.52%     87.54% |      210965     12.46%    100.00% (Unspecified)
system.caches.L1Cache_Controller.E.Fwd_GETS::total      1693065                       (Unspecified)
system.caches.L1Cache_Controller.M.Load  |      144263     13.42%     13.42% |      132931     12.36%     25.78% |      129788     12.07%     37.85% |      132169     12.29%     50.14% |      134624     12.52%     62.66% |      140480     13.06%     75.72% |      132733     12.34%     88.06% |      128375     11.94%    100.00% (Unspecified)
system.caches.L1Cache_Controller.M.Load::total      1075363                       (Unspecified)
system.caches.L1Cache_Controller.M.Store |      139811     13.39%     13.39% |      128987     12.36%     25.75% |      126222     12.09%     37.84% |      128994     12.36%     50.20% |      130854     12.53%     62.73% |      134311     12.87%     75.60% |      129435     12.40%     88.00% |      125299     12.00%    100.00% (Unspecified)
system.caches.L1Cache_Controller.M.Store::total      1043913                       (Unspecified)
system.caches.L1Cache_Controller.M.Inv   |         305     14.06%     14.06% |         295     13.60%     27.66% |         249     11.48%     39.14% |         271     12.49%     51.64% |         279     12.86%     64.50% |         308     14.20%     78.70% |         238     10.97%     89.67% |         224     10.33%    100.00% (Unspecified)
system.caches.L1Cache_Controller.M.Inv::total         2169                       (Unspecified)
system.caches.L1Cache_Controller.M.L1_Replacement |       16017     21.44%     21.44% |        8349     11.18%     32.62% |        8258     11.05%     43.67% |        8332     11.15%     54.82% |        8518     11.40%     66.22% |        8660     11.59%     77.82% |        8410     11.26%     89.07% |        8162     10.93%    100.00% (Unspecified)
system.caches.L1Cache_Controller.M.L1_Replacement::total        74706                       (Unspecified)
system.caches.L1Cache_Controller.M.Fwd_GETX |        1575     12.47%     12.47% |        1592     12.60%     25.07% |        1539     12.18%     37.25% |        1571     12.44%     49.69% |        1593     12.61%     62.30% |        1653     13.09%     75.39% |        1582     12.52%     87.91% |        1527     12.09%    100.00% (Unspecified)
system.caches.L1Cache_Controller.M.Fwd_GETX::total        12632                       (Unspecified)
system.caches.L1Cache_Controller.M.Fwd_GETS |        2404     16.42%     16.42% |        1769     12.08%     28.50% |        1676     11.44%     39.94% |        1764     12.05%     51.99% |        1735     11.85%     63.84% |        1836     12.54%     76.37% |        1786     12.20%     88.57% |        1674     11.43%    100.00% (Unspecified)
system.caches.L1Cache_Controller.M.Fwd_GETS::total        14644                       (Unspecified)
system.caches.L1Cache_Controller.IS.Inv  |           1      0.41%      0.41% |          42     17.21%     17.62% |          75     30.74%     48.36% |          83     34.02%     82.38% |          38     15.57%     97.95% |           1      0.41%     98.36% |           2      0.82%     99.18% |           2      0.82%    100.00% (Unspecified)
system.caches.L1Cache_Controller.IS.Inv::total          244                       (Unspecified)
system.caches.L1Cache_Controller.IS.L1_Replacement |           0      0.00%      0.00% |           0      0.00%      0.00% |           2     28.57%     28.57% |           2     28.57%     57.14% |           0      0.00%     57.14% |           1     14.29%     71.43% |           1     14.29%     85.71% |           1     14.29%    100.00% (Unspecified)
system.caches.L1Cache_Controller.IS.L1_Replacement::total            7                       (Unspecified)
system.caches.L1Cache_Controller.IS.Data_Exclusive |     1390547     12.44%     12.44% |     1385258     12.40%     24.84% |     1403697     12.56%     37.40% |     1400808     12.54%     49.94% |     1392605     12.46%     62.40% |     1391769     12.46%     74.86% |     1395779     12.49%     87.35% |     1413424     12.65%    100.00% (Unspecified)
system.caches.L1Cache_Controller.IS.Data_Exclusive::total     11173887                       (Unspecified)
system.caches.L1Cache_Controller.IS.DataS_fromL1 |      213107     12.48%     12.48% |      212695     12.45%     24.93% |      213414     12.50%     37.43% |      214068     12.54%     49.97% |      213201     12.48%     62.45% |      212040     12.42%     74.87% |      213046     12.48%     87.34% |      216151     12.66%    100.00% (Unspecified)
system.caches.L1Cache_Controller.IS.DataS_fromL1::total      1707722                       (Unspecified)
system.caches.L1Cache_Controller.IS.Data_all_Acks |     1462059     12.47%     12.47% |     1462211     12.47%     24.93% |     1464615     12.49%     37.42% |     1460547     12.45%     49.87% |     1466320     12.50%     62.37% |     1456992     12.42%     74.79% |     1471500     12.55%     87.34% |     1484982     12.66%    100.00% (Unspecified)
system.caches.L1Cache_Controller.IS.Data_all_Acks::total     11729226                       (Unspecified)
system.caches.L1Cache_Controller.IM.Data |          33    100.00%    100.00% |           0      0.00%    100.00% |           0      0.00%    100.00% |           0      0.00%    100.00% |           0      0.00%    100.00% |           0      0.00%    100.00% |           0      0.00%    100.00% |           0      0.00%    100.00% (Unspecified)
system.caches.L1Cache_Controller.IM.Data::total           33                       (Unspecified)
system.caches.L1Cache_Controller.IM.Data_all_Acks |        3880     14.90%     14.90% |        3180     12.21%     27.11% |        3154     12.11%     39.22% |        3169     12.17%     51.39% |        3211     12.33%     63.72% |        3217     12.35%     76.07% |        3161     12.14%     88.21% |        3071     11.79%    100.00% (Unspecified)
system.caches.L1Cache_Controller.IM.Data_all_Acks::total        26043                       (Unspecified)
system.caches.L1Cache_Controller.SM.Inv  |           4     12.90%     12.90% |           1      3.23%     16.13% |           7     22.58%     38.71% |           1      3.23%     41.94% |           4     12.90%     54.84% |           5     16.13%     70.97% |           5     16.13%     87.10% |           4     12.90%    100.00% (Unspecified)
system.caches.L1Cache_Controller.SM.Inv::total           31                       (Unspecified)
system.caches.L1Cache_Controller.SM.Ack  |        2797     18.50%     18.50% |        1788     11.83%     30.33% |        1718     11.36%     41.69% |        1731     11.45%     53.14% |        1763     11.66%     64.80% |        1857     12.28%     77.09% |        1779     11.77%     88.85% |        1685     11.15%    100.00% (Unspecified)
system.caches.L1Cache_Controller.SM.Ack::total        15118                       (Unspecified)
system.caches.L1Cache_Controller.SM.Ack_all |        2059     14.32%     14.32% |        1788     12.43%     26.75% |        1718     11.95%     38.70% |        1731     12.04%     50.74% |        1763     12.26%     63.00% |        1857     12.91%     75.91% |        1779     12.37%     88.28% |        1685     11.72%    100.00% (Unspecified)
system.caches.L1Cache_Controller.SM.Ack_all::total        14380                       (Unspecified)
system.caches.L1Cache_Controller.IS_I.Data_Exclusive |           1      7.69%      7.69% |           0      0.00%      7.69% |           2     15.38%     23.08% |           2     15.38%     38.46% |           3     23.08%     61.54% |           1      7.69%     69.23% |           2     15.38%     84.62% |           2     15.38%    100.00% (Unspecified)
system.caches.L1Cache_Controller.IS_I.Data_Exclusive::total           13                       (Unspecified)
system.caches.L1Cache_Controller.IS_I.Data_all_Acks |           0      0.00%      0.00% |          42     18.18%     18.18% |          73     31.60%     49.78% |          81     35.06%     84.85% |          35     15.15%    100.00% |           0      0.00%    100.00% |           0      0.00%    100.00% |           0      0.00%    100.00% (Unspecified)
system.caches.L1Cache_Controller.IS_I.Data_all_Acks::total          231                       (Unspecified)
system.caches.L1Cache_Controller.M_I.Load |           8     12.90%     12.90% |           5      8.06%     20.97% |           5      8.06%     29.03% |           5      8.06%     37.10% |           7     11.29%     48.39% |           9     14.52%     62.90% |          12     19.35%     82.26% |          11     17.74%    100.00% (Unspecified)
system.caches.L1Cache_Controller.M_I.Load::total           62                       (Unspecified)
system.caches.L1Cache_Controller.M_I.Inv |           4     22.22%     22.22% |           0      0.00%     22.22% |           5     27.78%     50.00% |           2     11.11%     61.11% |           4     22.22%     83.33% |           1      5.56%     88.89% |           0      0.00%     88.89% |           2     11.11%    100.00% (Unspecified)
system.caches.L1Cache_Controller.M_I.Inv::total           18                       (Unspecified)
system.caches.L1Cache_Controller.M_I.Fwd_GETS |           0      0.00%      0.00% |           3     23.08%     23.08% |           4     30.77%     53.85% |           0      0.00%     53.85% |           0      0.00%     53.85% |           2     15.38%     69.23% |           3     23.08%     92.31% |           1      7.69%    100.00% (Unspecified)
system.caches.L1Cache_Controller.M_I.Fwd_GETS::total           13                       (Unspecified)
system.caches.L1Cache_Controller.M_I.WB_Ack |     1171608     12.49%     12.49% |     1160865     12.38%     24.87% |     1176756     12.55%     37.42% |     1175241     12.53%     49.95% |     1168256     12.46%     62.41% |     1165286     12.43%     74.84% |     1170605     12.48%     87.32% |     1189155     12.68%    100.00% (Unspecified)
system.caches.L1Cache_Controller.M_I.WB_Ack::total      9377772                       (Unspecified)
system.caches.L1Cache_Controller.SINK_WB_ACK.WB_Ack |           4     12.90%     12.90% |           3      9.68%     22.58% |           9     29.03%     51.61% |           2      6.45%     58.06% |           4     12.90%     70.97% |           3      9.68%     80.65% |           3      9.68%     90.32% |           3      9.68%    100.00% (Unspecified)
system.caches.L1Cache_Controller.SINK_WB_ACK.WB_Ack::total           31                       (Unspecified)
system.caches.Directory_Controller.Fetch |       13861      0.17%      0.17% |     8019246     99.83%    100.00% (Unspecified)
system.caches.Directory_Controller.Fetch::total      8033107                       (Unspecified)
system.caches.Directory_Controller.Data  |         974      0.76%      0.76% |      127936     99.24%    100.00% (Unspecified)
system.caches.Directory_Controller.Data::total       128910                       (Unspecified)
system.caches.Directory_Controller.Memory_Data |       13861      0.17%      0.17% |     8019218     99.83%    100.00% (Unspecified)
system.caches.Directory_Controller.Memory_Data::total      8033079                       (Unspecified)
system.caches.Directory_Controller.Memory_Ack |         974      0.76%      0.76% |      127936     99.24%    100.00% (Unspecified)
system.caches.Directory_Controller.Memory_Ack::total       128910                       (Unspecified)
system.caches.Directory_Controller.CleanReplacement |       12753      0.16%      0.16% |     7891444     99.84%    100.00% (Unspecified)
system.caches.Directory_Controller.CleanReplacement::total      7904197                       (Unspecified)
system.caches.Directory_Controller.I.Fetch |       13861      0.17%      0.17% |     8019246     99.83%    100.00% (Unspecified)
system.caches.Directory_Controller.I.Fetch::total      8033107                       (Unspecified)
system.caches.Directory_Controller.M.Data |         974      0.76%      0.76% |      127936     99.24%    100.00% (Unspecified)
system.caches.Directory_Controller.M.Data::total       128910                       (Unspecified)
system.caches.Directory_Controller.M.CleanReplacement |       12753      0.16%      0.16% |     7891444     99.84%    100.00% (Unspecified)
system.caches.Directory_Controller.M.CleanReplacement::total      7904197                       (Unspecified)
system.caches.Directory_Controller.IM.Memory_Data |       13861      0.17%      0.17% |     8019218     99.83%    100.00% (Unspecified)
system.caches.Directory_Controller.IM.Memory_Data::total      8033079                       (Unspecified)
system.caches.Directory_Controller.MI.Memory_Ack |         974      0.76%      0.76% |      127936     99.24%    100.00% (Unspecified)
system.caches.Directory_Controller.MI.Memory_Ack::total       128910                       (Unspecified)
system.caches.L2Cache_Controller.L1_GET_INSTR |        8900     11.37%     11.37% |       11136     14.23%     25.60% |        9383     11.99%     37.59% |        6577      8.40%     45.99% |       10183     13.01%     59.00% |       10975     14.02%     73.03% |       10731     13.71%     86.74% |       10380     13.26%    100.00% (Unspecified)
system.caches.L2Cache_Controller.L1_GET_INSTR::total        78265                       (Unspecified)
system.caches.L2Cache_Controller.L1_GETS |     3115309     12.70%     12.70% |     3079165     12.55%     25.25% |     3075689     12.54%     37.78% |     3044229     12.41%     50.19% |     3048154     12.42%     62.61% |     3076967     12.54%     75.16% |     3033704     12.36%     87.52% |     3061830     12.48%    100.00% (Unspecified)
system.caches.L2Cache_Controller.L1_GETS::total     24535047                       (Unspecified)
system.caches.L2Cache_Controller.L1_GETX |        2850     10.92%     10.92% |        2200      8.43%     19.34% |         218      0.84%     20.18% |       13596     52.08%     72.26% |        1457      5.58%     77.84% |        2452      9.39%     87.24% |        1411      5.41%     92.64% |        1921      7.36%    100.00% (Unspecified)
system.caches.L2Cache_Controller.L1_GETX::total        26105                       (Unspecified)
system.caches.L2Cache_Controller.L1_UPGRADE |           0      0.00%      0.00% |        7044     48.65%     48.65% |           0      0.00%     48.65% |           0      0.00%     48.65% |           0      0.00%     48.65% |        7088     48.95%     97.60% |         347      2.40%    100.00% |           0      0.00%    100.00% (Unspecified)
system.caches.L2Cache_Controller.L1_UPGRADE::total        14479                       (Unspecified)
system.caches.L2Cache_Controller.L1_PUTX |     1169539     12.47%     12.47% |     1178079     12.56%     25.03% |     1168618     12.46%     37.50% |     1172238     12.50%     50.00% |     1169850     12.47%     62.47% |     1179745     12.58%     75.05% |     1163025     12.40%     87.45% |     1176704     12.55%    100.00% (Unspecified)
system.caches.L2Cache_Controller.L1_PUTX::total      9377798                       (Unspecified)
system.caches.L2Cache_Controller.L1_PUTX_old |          10     27.78%     27.78% |           4     11.11%     38.89% |           8     22.22%     61.11% |           2      5.56%     66.67% |           4     11.11%     77.78% |           4     11.11%     88.89% |           2      5.56%     94.44% |           2      5.56%    100.00% (Unspecified)
system.caches.L2Cache_Controller.L1_PUTX_old::total           36                       (Unspecified)
system.caches.L2Cache_Controller.L2_Replacement |       16441     12.91%     12.91% |       15873     12.47%     25.38% |       14257     11.20%     36.58% |       15442     12.13%     48.71% |       15673     12.31%     61.02% |       17296     13.59%     74.60% |       15839     12.44%     87.04% |       16494     12.96%    100.00% (Unspecified)
system.caches.L2Cache_Controller.L2_Replacement::total       127315                       (Unspecified)
system.caches.L2Cache_Controller.L2_Replacement_clean |      985842     12.47%     12.47% |      991885     12.55%     25.02% |      983244     12.44%     37.45% |      992768     12.56%     50.01% |      987292     12.49%     62.50% |      990967     12.53%     75.03% |      983270     12.44%     87.47% |      990524     12.53%    100.00% (Unspecified)
system.caches.L2Cache_Controller.L2_Replacement_clean::total      7905792                       (Unspecified)
system.caches.L2Cache_Controller.Mem_Data |     1002279     12.48%     12.48% |     1007754     12.55%     25.02% |      997497     12.42%     37.44% |     1008206     12.55%     49.99% |     1002963     12.49%     62.48% |     1008260     12.55%     75.03% |      999108     12.44%     87.46% |     1007012     12.54%    100.00% (Unspecified)
system.caches.L2Cache_Controller.Mem_Data::total      8033079                       (Unspecified)
system.caches.L2Cache_Controller.Mem_Ack |     1002283     12.48%     12.48% |     1007758     12.55%     25.02% |      997501     12.42%     37.44% |     1008210     12.55%     49.99% |     1002965     12.49%     62.48% |     1008263     12.55%     75.03% |      999109     12.44%     87.46% |     1007018     12.54%    100.00% (Unspecified)
system.caches.L2Cache_Controller.Mem_Ack::total      8033107                       (Unspecified)
system.caches.L2Cache_Controller.WB_Data |         677      4.03%      4.03% |        7582     45.10%     49.12% |         170      1.01%     50.13% |         211      1.25%     51.39% |         175      1.04%     52.43% |        7232     43.01%     95.44% |         491      2.92%     98.36% |         275      1.64%    100.00% (Unspecified)
system.caches.L2Cache_Controller.WB_Data::total        16813                       (Unspecified)
system.caches.L2Cache_Controller.WB_Data_clean |      217845     12.87%     12.87% |      210345     12.42%     25.29% |      209211     12.36%     37.65% |      213507     12.61%     50.26% |      210700     12.44%     62.70% |      210581     12.44%     75.14% |      210130     12.41%     87.55% |      210777     12.45%    100.00% (Unspecified)
system.caches.L2Cache_Controller.WB_Data_clean::total      1693096                       (Unspecified)
system.caches.L2Cache_Controller.Ack     |      572652     12.53%     12.53% |      573315     12.54%     25.07% |      572545     12.52%     37.59% |      576178     12.60%     50.20% |      569305     12.45%     62.65% |      568813     12.44%     75.09% |      569014     12.45%     87.54% |      569497     12.46%    100.00% (Unspecified)
system.caches.L2Cache_Controller.Ack::total      4571319                       (Unspecified)
system.caches.L2Cache_Controller.Ack_all |      231414     12.82%     12.82% |      224816     12.45%     25.27% |      223193     12.36%     37.63% |      227826     12.62%     50.25% |      224730     12.45%     62.69% |      224828     12.45%     75.15% |      223935     12.40%     87.55% |      224843     12.45%    100.00% (Unspecified)
system.caches.L2Cache_Controller.Ack_all::total      1805585                       (Unspecified)
system.caches.L2Cache_Controller.Unblock |      217969     12.76%     12.76% |      217384     12.73%     25.49% |      209236     12.25%     37.75% |      213529     12.50%     50.25% |      210723     12.34%     62.59% |      217625     12.74%     75.33% |      210455     12.32%     87.66% |      210801     12.34%    100.00% (Unspecified)
system.caches.L2Cache_Controller.Unblock::total      1707722                       (Unspecified)
system.caches.L2Cache_Controller.Exclusive_Unblock |     1401432     12.50%     12.50% |     1410544     12.58%     25.07% |     1391876     12.41%     37.49% |     1413602     12.61%     50.09% |     1394918     12.44%     62.53% |     1412122     12.59%     75.12% |     1388006     12.38%     87.50% |     1401823     12.50%    100.00% (Unspecified)
system.caches.L2Cache_Controller.Exclusive_Unblock::total     11214323                       (Unspecified)
system.caches.L2Cache_Controller.NP.L1_GET_INSTR |        1369     11.84%     11.84% |        1651     14.27%     26.11% |        1460     12.62%     38.73% |        1055      9.12%     47.86% |        1507     13.03%     60.89% |        1504     13.00%     73.89% |        1451     12.55%     86.43% |        1569     13.57%    100.00% (Unspecified)
system.caches.L2Cache_Controller.NP.L1_GET_INSTR::total        11566                       (Unspecified)
system.caches.L2Cache_Controller.NP.L1_GETS |      998718     12.47%     12.47% |     1004359     12.54%     25.01% |      995841     12.43%     37.44% |     1006193     12.56%     50.00% |     1000135     12.49%     62.49% |     1004534     12.54%     75.03% |      996393     12.44%     87.47% |     1003775     12.53%    100.00% (Unspecified)
system.caches.L2Cache_Controller.NP.L1_GETS::total      8009948                       (Unspecified)
system.caches.L2Cache_Controller.NP.L1_GETX |        2196     18.94%     18.94% |        1748     15.08%     34.02% |         200      1.73%     35.75% |         962      8.30%     44.04% |        1323     11.41%     55.46% |        2225     19.19%     74.65% |        1265     10.91%     85.56% |        1674     14.44%    100.00% (Unspecified)
system.caches.L2Cache_Controller.NP.L1_GETX::total        11593                       (Unspecified)
system.caches.L2Cache_Controller.NP.L1_PUTX_old |           5     27.78%     27.78% |           2     11.11%     38.89% |           4     22.22%     61.11% |           1      5.56%     66.67% |           2     11.11%     77.78% |           2     11.11%     88.89% |           1      5.56%     94.44% |           1      5.56%    100.00% (Unspecified)
system.caches.L2Cache_Controller.NP.L1_PUTX_old::total           18                       (Unspecified)
system.caches.L2Cache_Controller.SS.L1_GET_INSTR |        5204     10.89%     10.89% |        6708     14.04%     24.93% |        5924     12.40%     37.33% |        3661      7.66%     45.00% |        6193     12.96%     57.96% |        6718     14.06%     72.02% |        6676     13.97%     85.99% |        6691     14.01%    100.00% (Unspecified)
system.caches.L2Cache_Controller.SS.L1_GET_INSTR::total        47775                       (Unspecified)
system.caches.L2Cache_Controller.SS.L1_GETS |     1495856     12.85%     12.85% |     1458827     12.53%     25.38% |     1472976     12.65%     38.04% |     1429600     12.28%     50.32% |     1442832     12.40%     62.72% |     1455381     12.50%     75.22% |     1434812     12.33%     87.55% |     1449621     12.45%    100.00% (Unspecified)
system.caches.L2Cache_Controller.SS.L1_GETS::total     11639905                       (Unspecified)
system.caches.L2Cache_Controller.SS.L1_GETX |          20     60.61%     60.61% |           0      0.00%     60.61% |           0      0.00%     60.61% |           0      0.00%     60.61% |           0      0.00%     60.61% |           0      0.00%     60.61% |          13     39.39%    100.00% |           0      0.00%    100.00% (Unspecified)
system.caches.L2Cache_Controller.SS.L1_GETX::total           33                       (Unspecified)
system.caches.L2Cache_Controller.SS.L1_UPGRADE |           0      0.00%      0.00% |        7025     48.96%     48.96% |           0      0.00%     48.96% |           0      0.00%     48.96% |           0      0.00%     48.96% |        7071     49.29%     98.25% |         251      1.75%    100.00% |           0      0.00%    100.00% (Unspecified)
system.caches.L2Cache_Controller.SS.L1_UPGRADE::total        14347                       (Unspecified)
system.caches.L2Cache_Controller.SS.L1_PUTX |           3     23.08%     23.08% |           3     23.08%     46.15% |           0      0.00%     46.15% |           3     23.08%     69.23% |           1      7.69%     76.92% |           1      7.69%     84.62% |           2     15.38%    100.00% |           0      0.00%    100.00% (Unspecified)
system.caches.L2Cache_Controller.SS.L1_PUTX::total           13                       (Unspecified)
system.caches.L2Cache_Controller.SS.L2_Replacement |         631     12.95%     12.95% |         643     13.20%     26.15% |         593     12.17%     38.33% |         590     12.11%     50.44% |         585     12.01%     62.45% |         617     12.67%     75.12% |         650     13.34%     88.46% |         562     11.54%    100.00% (Unspecified)
system.caches.L2Cache_Controller.SS.L2_Replacement::total         4871                       (Unspecified)
system.caches.L2Cache_Controller.SS.L2_Replacement_clean |      216583     12.88%     12.88% |      208983     12.43%     25.32% |      207932     12.37%     37.69% |      211510     12.58%     50.27% |      209280     12.45%     62.72% |      208890     12.43%     75.15% |      208282     12.39%     87.54% |      209443     12.46%    100.00% (Unspecified)
system.caches.L2Cache_Controller.SS.L2_Replacement_clean::total      1680903                       (Unspecified)
system.caches.L2Cache_Controller.M.L1_GET_INSTR |           0      0.00%      0.00% |           3     30.00%     30.00% |           1     10.00%     40.00% |           0      0.00%     40.00% |           0      0.00%     40.00% |           1     10.00%     50.00% |           2     20.00%     70.00% |           3     30.00%    100.00% (Unspecified)
system.caches.L2Cache_Controller.M.L1_GET_INSTR::total           10                       (Unspecified)
system.caches.L2Cache_Controller.M.L1_GETS |      400800     12.65%     12.65% |      397518     12.55%     25.20% |      396538     12.52%     37.71% |      394250     12.44%     50.16% |      393793     12.43%     62.58% |      398523     12.58%     75.16% |      390241     12.32%     87.48% |      396723     12.52%    100.00% (Unspecified)
system.caches.L2Cache_Controller.M.L1_GETS::total      3168386                       (Unspecified)
system.caches.L2Cache_Controller.M.L1_GETX |         630     34.73%     34.73% |         426     23.48%     58.21% |          18      0.99%     59.21% |          30      1.65%     60.86% |         134      7.39%     68.25% |         199     10.97%     79.22% |         130      7.17%     86.38% |         247     13.62%    100.00% (Unspecified)
system.caches.L2Cache_Controller.M.L1_GETX::total         1814                       (Unspecified)
system.caches.L2Cache_Controller.M.L2_Replacement |       15590     12.81%     12.81% |       14959     12.29%     25.10% |       13644     11.21%     36.32% |       14826     12.18%     48.50% |       15063     12.38%     60.88% |       16574     13.62%     74.50% |       15166     12.46%     86.96% |       15868     13.04%    100.00% (Unspecified)
system.caches.L2Cache_Controller.M.L2_Replacement::total       121690                       (Unspecified)
system.caches.L2Cache_Controller.M.L2_Replacement_clean |      754726     12.37%     12.37% |      767440     12.57%     24.94% |      760519     12.46%     37.40% |      765369     12.54%     49.94% |      763020     12.50%     62.44% |      766673     12.56%     75.00% |      759842     12.45%     87.45% |      766056     12.55%    100.00% (Unspecified)
system.caches.L2Cache_Controller.M.L2_Replacement_clean::total      6103645                       (Unspecified)
system.caches.L2Cache_Controller.MT.L1_GETS |      217969     12.76%     12.76% |      217384     12.73%     25.49% |      209236     12.25%     37.75% |      213529     12.50%     50.25% |      210723     12.34%     62.59% |      217625     12.74%     75.33% |      210455     12.32%     87.66% |      210801     12.34%    100.00% (Unspecified)
system.caches.L2Cache_Controller.MT.L1_GETS::total      1707722                       (Unspecified)
system.caches.L2Cache_Controller.MT.L1_GETX |           2      0.02%      0.02% |          23      0.18%      0.20% |           0      0.00%      0.20% |       12587     99.61%     99.81% |           0      0.00%     99.81% |          22      0.17%     99.98% |           2      0.02%    100.00% |           0      0.00%    100.00% (Unspecified)
system.caches.L2Cache_Controller.MT.L1_GETX::total        12636                       (Unspecified)
system.caches.L2Cache_Controller.MT.L1_PUTX |     1169533     12.47%     12.47% |     1178073     12.56%     25.03% |     1168618     12.46%     37.50% |     1172232     12.50%     50.00% |     1169848     12.47%     62.47% |     1179743     12.58%     75.05% |     1163021     12.40%     87.45% |     1176704     12.55%    100.00% (Unspecified)
system.caches.L2Cache_Controller.MT.L1_PUTX::total      9377772                       (Unspecified)
system.caches.L2Cache_Controller.MT.L2_Replacement |         220     29.18%     29.18% |         271     35.94%     65.12% |          20      2.65%     67.77% |          26      3.45%     71.22% |          25      3.32%     74.54% |         105     13.93%     88.46% |          23      3.05%     91.51% |          64      8.49%    100.00% (Unspecified)
system.caches.L2Cache_Controller.MT.L2_Replacement::total          754                       (Unspecified)
system.caches.L2Cache_Controller.MT.L2_Replacement_clean |       14533     11.99%     11.99% |       15462     12.75%     24.74% |       14793     12.20%     36.94% |       15889     13.10%     50.05% |       14992     12.37%     62.41% |       15404     12.70%     75.12% |       15146     12.49%     87.61% |       15025     12.39%    100.00% (Unspecified)
system.caches.L2Cache_Controller.MT.L2_Replacement_clean::total       121244                       (Unspecified)
system.caches.L2Cache_Controller.M_I.L1_GET_INSTR |           0      0.00%      0.00% |           0      0.00%      0.00% |           8     57.14%     57.14% |           5     35.71%     92.86% |           0      0.00%     92.86% |           0      0.00%     92.86% |           1      7.14%    100.00% |           0      0.00%    100.00% (Unspecified)
system.caches.L2Cache_Controller.M_I.L1_GET_INSTR::total           14                       (Unspecified)
system.caches.L2Cache_Controller.M_I.L1_GETS |          46     47.92%     47.92% |          14     14.58%     62.50% |           8      8.33%     70.83% |           3      3.12%     73.96% |          12     12.50%     86.46% |           5      5.21%     91.67% |           6      6.25%     97.92% |           2      2.08%    100.00% (Unspecified)
system.caches.L2Cache_Controller.M_I.L1_GETS::total           96                       (Unspecified)
system.caches.L2Cache_Controller.M_I.L1_GETX |           2     66.67%     66.67% |           0      0.00%     66.67% |           0      0.00%     66.67% |           0      0.00%     66.67% |           0      0.00%     66.67% |           1     33.33%    100.00% |           0      0.00%    100.00% |           0      0.00%    100.00% (Unspecified)
system.caches.L2Cache_Controller.M_I.L1_GETX::total            3                       (Unspecified)
system.caches.L2Cache_Controller.M_I.Mem_Ack |     1002283     12.48%     12.48% |     1007758     12.55%     25.02% |      997501     12.42%     37.44% |     1008210     12.55%     49.99% |     1002965     12.49%     62.48% |     1008263     12.55%     75.03% |      999109     12.44%     87.46% |     1007018     12.54%    100.00% (Unspecified)
system.caches.L2Cache_Controller.M_I.Mem_Ack::total      8033107                       (Unspecified)
system.caches.L2Cache_Controller.MT_I.WB_Data |         193     33.62%     33.62% |         255     44.43%     78.05% |           1      0.17%     78.22% |           2      0.35%     78.57% |           1      0.17%     78.75% |          80     13.94%     92.68% |           7      1.22%     93.90% |          35      6.10%    100.00% (Unspecified)
system.caches.L2Cache_Controller.MT_I.WB_Data::total          574                       (Unspecified)
system.caches.L2Cache_Controller.MT_I.Ack_all |          27     15.00%     15.00% |          16      8.89%     23.89% |          19     10.56%     34.44% |          24     13.33%     47.78% |          24     13.33%     61.11% |          25     13.89%     75.00% |          16      8.89%     83.89% |          29     16.11%    100.00% (Unspecified)
system.caches.L2Cache_Controller.MT_I.Ack_all::total          180                       (Unspecified)
system.caches.L2Cache_Controller.MCT_I.L1_GETS |           0      0.00%      0.00% |           0      0.00%      0.00% |           1    100.00%    100.00% |           0      0.00%    100.00% |           0      0.00%    100.00% |           0      0.00%    100.00% |           0      0.00%    100.00% |           0      0.00%    100.00% (Unspecified)
system.caches.L2Cache_Controller.MCT_I.L1_GETS::total            1                       (Unspecified)
system.caches.L2Cache_Controller.MCT_I.L1_PUTX_old |           5     27.78%     27.78% |           2     11.11%     38.89% |           4     22.22%     61.11% |           1      5.56%     66.67% |           2     11.11%     77.78% |           2     11.11%     88.89% |           1      5.56%     94.44% |           1      5.56%    100.00% (Unspecified)
system.caches.L2Cache_Controller.MCT_I.L1_PUTX_old::total           18                       (Unspecified)
system.caches.L2Cache_Controller.MCT_I.WB_Data |         355     22.26%     22.26% |         286     17.93%     40.19% |         140      8.78%     48.97% |         186     11.66%     60.63% |         149      9.34%     69.97% |         106      6.65%     76.61% |         158      9.91%     86.52% |         215     13.48%    100.00% (Unspecified)
system.caches.L2Cache_Controller.MCT_I.WB_Data::total         1595                       (Unspecified)
system.caches.L2Cache_Controller.MCT_I.WB_Data_clean |           5     27.78%     27.78% |           2     11.11%     38.89% |           4     22.22%     61.11% |           1      5.56%     66.67% |           2     11.11%     77.78% |           2     11.11%     88.89% |           1      5.56%     94.44% |           1      5.56%    100.00% (Unspecified)
system.caches.L2Cache_Controller.MCT_I.WB_Data_clean::total           18                       (Unspecified)
system.caches.L2Cache_Controller.MCT_I.Ack_all |       14173     11.85%     11.85% |       15174     12.68%     24.53% |       14649     12.25%     36.78% |       15702     13.13%     49.90% |       14841     12.41%     62.31% |       15296     12.79%     75.09% |       14987     12.53%     87.62% |       14809     12.38%    100.00% (Unspecified)
system.caches.L2Cache_Controller.MCT_I.Ack_all::total       119631                       (Unspecified)
system.caches.L2Cache_Controller.I_I.L1_GETS |           1      4.35%      4.35% |           3     13.04%     17.39% |           4     17.39%     34.78% |           3     13.04%     47.83% |           1      4.35%     52.17% |           3     13.04%     65.22% |           4     17.39%     82.61% |           4     17.39%    100.00% (Unspecified)
system.caches.L2Cache_Controller.I_I.L1_GETS::total           23                       (Unspecified)
system.caches.L2Cache_Controller.I_I.Ack |      570573     12.52%     12.52% |      571528     12.54%     25.06% |      570928     12.53%     37.58% |      574591     12.61%     50.19% |      567747     12.46%     62.65% |      567269     12.45%     75.09% |      567121     12.44%     87.54% |      568097     12.46%    100.00% (Unspecified)
system.caches.L2Cache_Controller.I_I.Ack::total      4557854                       (Unspecified)
system.caches.L2Cache_Controller.I_I.Ack_all |      216583     12.88%     12.88% |      208983     12.43%     25.32% |      207932     12.37%     37.69% |      211510     12.58%     50.27% |      209280     12.45%     62.72% |      208890     12.43%     75.15% |      208282     12.39%     87.54% |      209443     12.46%    100.00% (Unspecified)
system.caches.L2Cache_Controller.I_I.Ack_all::total      1680903                       (Unspecified)
system.caches.L2Cache_Controller.S_I.Ack |        2079     15.44%     15.44% |        1787     13.27%     28.71% |        1617     12.01%     40.72% |        1587     11.79%     52.51% |        1558     11.57%     64.08% |        1544     11.47%     75.54% |        1893     14.06%     89.60% |        1400     10.40%    100.00% (Unspecified)
system.caches.L2Cache_Controller.S_I.Ack::total        13465                       (Unspecified)
system.caches.L2Cache_Controller.S_I.Ack_all |         631     12.95%     12.95% |         643     13.20%     26.15% |         593     12.17%     38.33% |         590     12.11%     50.44% |         585     12.01%     62.45% |         617     12.67%     75.12% |         650     13.34%     88.46% |         562     11.54%    100.00% (Unspecified)
system.caches.L2Cache_Controller.S_I.Ack_all::total         4871                       (Unspecified)
system.caches.L2Cache_Controller.ISS.L1_GETS |         930     21.11%     21.11% |         551     12.51%     33.61% |         717     16.27%     49.89% |         416      9.44%     59.33% |         465     10.55%     69.88% |         449     10.19%     80.07% |         288      6.54%     86.61% |         590     13.39%    100.00% (Unspecified)
system.caches.L2Cache_Controller.ISS.L1_GETS::total         4406                       (Unspecified)
system.caches.L2Cache_Controller.ISS.Mem_Data |      997784     12.46%     12.46% |     1003804     12.54%     25.00% |      995120     12.43%     37.43% |     1005773     12.56%     50.00% |      999668     12.49%     62.48% |     1004082     12.54%     75.03% |      996104     12.44%     87.47% |     1003179     12.53%    100.00% (Unspecified)
system.caches.L2Cache_Controller.ISS.Mem_Data::total      8005514                       (Unspecified)
system.caches.L2Cache_Controller.IS.L1_GET_INSTR |        2327     12.31%     12.31% |        2774     14.68%     26.99% |        1990     10.53%     37.52% |        1856      9.82%     47.34% |        2483     13.14%     60.48% |        2752     14.56%     75.04% |        2601     13.76%     88.80% |        2117     11.20%    100.00% (Unspecified)
system.caches.L2Cache_Controller.IS.L1_GET_INSTR::total        18900                       (Unspecified)
system.caches.L2Cache_Controller.IS.L1_GETS |         811     32.57%     32.57% |         311     12.49%     45.06% |         306     12.29%     57.35% |         215      8.63%     65.98% |         174      6.99%     72.97% |         422     16.95%     89.92% |          23      0.92%     90.84% |         228      9.16%    100.00% (Unspecified)
system.caches.L2Cache_Controller.IS.L1_GETS::total         2490                       (Unspecified)
system.caches.L2Cache_Controller.IS.Mem_Data |        2299     14.39%     14.39% |        2202     13.79%     28.18% |        2177     13.63%     41.81% |        1471      9.21%     51.02% |        1972     12.35%     63.37% |        1953     12.23%     75.59% |        1739     10.89%     86.48% |        2159     13.52%    100.00% (Unspecified)
system.caches.L2Cache_Controller.IS.Mem_Data::total        15972                       (Unspecified)
system.caches.L2Cache_Controller.IM.Mem_Data |        2196     18.94%     18.94% |        1748     15.08%     34.02% |         200      1.73%     35.75% |         962      8.30%     44.04% |        1323     11.41%     55.46% |        2225     19.19%     74.65% |        1265     10.91%     85.56% |        1674     14.44%    100.00% (Unspecified)
system.caches.L2Cache_Controller.IM.Mem_Data::total        11593                       (Unspecified)
system.caches.L2Cache_Controller.SS_MB.L1_GETS |           0      0.00%      0.00% |           3      0.37%      0.37% |           0      0.00%      0.37% |           0      0.00%      0.37% |           0      0.00%      0.37% |           4      0.49%      0.86% |         807     99.14%    100.00% |           0      0.00%    100.00% (Unspecified)
system.caches.L2Cache_Controller.SS_MB.L1_GETS::total          814                       (Unspecified)
system.caches.L2Cache_Controller.SS_MB.L1_GETX |           0      0.00%      0.00% |           2     66.67%     66.67% |           0      0.00%     66.67% |           0      0.00%     66.67% |           0      0.00%     66.67% |           1     33.33%    100.00% |           0      0.00%    100.00% |           0      0.00%    100.00% (Unspecified)
system.caches.L2Cache_Controller.SS_MB.L1_GETX::total            3                       (Unspecified)
system.caches.L2Cache_Controller.SS_MB.L1_UPGRADE |           0      0.00%      0.00% |          16     51.61%     51.61% |           0      0.00%     51.61% |           0      0.00%     51.61% |           0      0.00%     51.61% |          15     48.39%    100.00% |           0      0.00%    100.00% |           0      0.00%    100.00% (Unspecified)
system.caches.L2Cache_Controller.SS_MB.L1_UPGRADE::total           31                       (Unspecified)
system.caches.L2Cache_Controller.SS_MB.Exclusive_Unblock |          20      0.14%      0.14% |        7025     48.85%     48.99% |           0      0.00%     48.99% |           0      0.00%     48.99% |           0      0.00%     48.99% |        7071     49.17%     98.16% |         264      1.84%    100.00% |           0      0.00%    100.00% (Unspecified)
system.caches.L2Cache_Controller.SS_MB.Exclusive_Unblock::total        14380                       (Unspecified)
system.caches.L2Cache_Controller.MT_MB.L1_GETS |          17     14.29%     14.29% |          30     25.21%     39.50% |          18     15.13%     54.62% |          12     10.08%     64.71% |           8      6.72%     71.43% |           7      5.88%     77.31% |           6      5.04%     82.35% |          21     17.65%    100.00% (Unspecified)
system.caches.L2Cache_Controller.MT_MB.L1_GETS::total          119                       (Unspecified)
system.caches.L2Cache_Controller.MT_MB.L1_GETX |           0      0.00%      0.00% |           1      4.35%      4.35% |           0      0.00%      4.35% |          17     73.91%     78.26% |           0      0.00%     78.26% |           4     17.39%     95.65% |           1      4.35%    100.00% |           0      0.00%    100.00% (Unspecified)
system.caches.L2Cache_Controller.MT_MB.L1_GETX::total           23                       (Unspecified)
system.caches.L2Cache_Controller.MT_MB.Exclusive_Unblock |     1401412     12.51%     12.51% |     1403519     12.53%     25.04% |     1391876     12.43%     37.47% |     1413602     12.62%     50.09% |     1394918     12.45%     62.55% |     1405051     12.55%     75.09% |     1387742     12.39%     87.48% |     1401823     12.52%    100.00% (Unspecified)
system.caches.L2Cache_Controller.MT_MB.Exclusive_Unblock::total     11199943                       (Unspecified)
system.caches.L2Cache_Controller.MT_IIB.L1_GETS |         133     12.55%     12.55% |         130     12.26%     24.81% |          43      4.06%     28.87% |           7      0.66%     29.53% |           8      0.75%     30.28% |          12      1.13%     31.42% |         662     62.45%     93.87% |          65      6.13%    100.00% (Unspecified)
system.caches.L2Cache_Controller.MT_IIB.L1_GETS::total         1060                       (Unspecified)
system.caches.L2Cache_Controller.MT_IIB.L1_PUTX |           3     23.08%     23.08% |           3     23.08%     46.15% |           0      0.00%     46.15% |           3     23.08%     69.23% |           1      7.69%     76.92% |           1      7.69%     84.62% |           2     15.38%    100.00% |           0      0.00%    100.00% (Unspecified)
system.caches.L2Cache_Controller.MT_IIB.L1_PUTX::total           13                       (Unspecified)
system.caches.L2Cache_Controller.MT_IIB.WB_Data |         129      0.88%      0.88% |        7040     48.08%     48.96% |          29      0.20%     49.16% |          23      0.16%     49.31% |          25      0.17%     49.48% |        7046     48.12%     97.60% |         326      2.23%     99.83% |          25      0.17%    100.00% (Unspecified)
system.caches.L2Cache_Controller.MT_IIB.WB_Data::total        14643                       (Unspecified)
system.caches.L2Cache_Controller.MT_IIB.WB_Data_clean |      217836     12.87%     12.87% |      210330     12.42%     25.29% |      209191     12.36%     37.65% |      213498     12.61%     50.26% |      210688     12.44%     62.70% |      210573     12.44%     75.14% |      210121     12.41%     87.55% |      210768     12.45%    100.00% (Unspecified)
system.caches.L2Cache_Controller.MT_IIB.WB_Data_clean::total      1693005                       (Unspecified)
system.caches.L2Cache_Controller.MT_IIB.Unblock |           4      5.41%      5.41% |          14     18.92%     24.32% |          16     21.62%     45.95% |           8     10.81%     56.76% |          10     13.51%     70.27% |           6      8.11%     78.38% |           8     10.81%     89.19% |           8     10.81%    100.00% (Unspecified)
system.caches.L2Cache_Controller.MT_IIB.Unblock::total           74                       (Unspecified)
system.caches.L2Cache_Controller.MT_IB.WB_Data |           0      0.00%      0.00% |           1    100.00%    100.00% |           0      0.00%    100.00% |           0      0.00%    100.00% |           0      0.00%    100.00% |           0      0.00%    100.00% |           0      0.00%    100.00% |           0      0.00%    100.00% (Unspecified)
system.caches.L2Cache_Controller.MT_IB.WB_Data::total            1                       (Unspecified)
system.caches.L2Cache_Controller.MT_IB.WB_Data_clean |           4      5.48%      5.48% |          13     17.81%     23.29% |          16     21.92%     45.21% |           8     10.96%     56.16% |          10     13.70%     69.86% |           6      8.22%     78.08% |           8     10.96%     89.04% |           8     10.96%    100.00% (Unspecified)
system.caches.L2Cache_Controller.MT_IB.WB_Data_clean::total           73                       (Unspecified)
system.caches.L2Cache_Controller.MT_SB.L1_GETS |          28     36.36%     36.36% |          35     45.45%     81.82% |           1      1.30%     83.12% |           1      1.30%     84.42% |           3      3.90%     88.31% |           2      2.60%     90.91% |           7      9.09%    100.00% |           0      0.00%    100.00% (Unspecified)
system.caches.L2Cache_Controller.MT_SB.L1_GETS::total           77                       (Unspecified)
system.caches.L2Cache_Controller.MT_SB.L1_UPGRADE |           0      0.00%      0.00% |           3      2.97%      2.97% |           0      0.00%      2.97% |           0      0.00%      2.97% |           0      0.00%      2.97% |           2      1.98%      4.95% |          96     95.05%    100.00% |           0      0.00%    100.00% (Unspecified)
system.caches.L2Cache_Controller.MT_SB.L1_UPGRADE::total          101                       (Unspecified)
system.caches.L2Cache_Controller.MT_SB.Unblock |      217965     12.76%     12.76% |      217370     12.73%     25.49% |      209220     12.25%     37.75% |      213521     12.50%     50.25% |      210713     12.34%     62.59% |      217619     12.74%     75.33% |      210447     12.32%     87.66% |      210793     12.34%    100.00% (Unspecified)
system.caches.L2Cache_Controller.MT_SB.Unblock::total      1707648                       (Unspecified)
system.caches.RequestType.LD.latency_hist_seqr::bucket_size         1024                       (Unspecified)
system.caches.RequestType.LD.latency_hist_seqr::max_bucket        10239                       (Unspecified)
system.caches.RequestType.LD.latency_hist_seqr::samples     54916864                       (Unspecified)
system.caches.RequestType.LD.latency_hist_seqr::mean   140.415017                       (Unspecified)
system.caches.RequestType.LD.latency_hist_seqr::gmean     7.023421                       (Unspecified)
system.caches.RequestType.LD.latency_hist_seqr::stdev   360.922699                       (Unspecified)
system.caches.RequestType.LD.latency_hist_seqr |    52874527     96.28%     96.28% |     1727419      3.15%     99.43% |      295711      0.54%     99.97% |       18106      0.03%    100.00% |         995      0.00%    100.00% |         103      0.00%    100.00% |           3      0.00%    100.00% |           0      0.00%    100.00% |           0      0.00%    100.00% |           0      0.00%    100.00% (Unspecified)
system.caches.RequestType.LD.latency_hist_seqr::total     54916864                       (Unspecified)
system.caches.RequestType.LD.hit_latency_hist_seqr::bucket_size            1                       (Unspecified)
system.caches.RequestType.LD.hit_latency_hist_seqr::max_bucket            9                       (Unspecified)
system.caches.RequestType.LD.hit_latency_hist_seqr::samples     30384036                       (Unspecified)
system.caches.RequestType.LD.hit_latency_hist_seqr::mean     1.113100                       (Unspecified)
system.caches.RequestType.LD.hit_latency_hist_seqr::gmean     1.064467                       (Unspecified)
system.caches.RequestType.LD.hit_latency_hist_seqr::stdev     0.484823                       (Unspecified)
system.caches.RequestType.LD.hit_latency_hist_seqr |           0      0.00%      0.00% |    28405150     93.49%     93.49% |     1017315      3.35%     96.84% |      557766      1.84%     98.67% |      313012      1.03%     99.70% |       89419      0.29%    100.00% |        1374      0.00%    100.00% |           0      0.00%    100.00% |           0      0.00%    100.00% |           0      0.00%    100.00% (Unspecified)
system.caches.RequestType.LD.hit_latency_hist_seqr::total     30384036                       (Unspecified)
system.caches.RequestType.LD.miss_latency_hist_seqr::bucket_size         1024                       (Unspecified)
system.caches.RequestType.LD.miss_latency_hist_seqr::max_bucket        10239                       (Unspecified)
system.caches.RequestType.LD.miss_latency_hist_seqr::samples     24532828                       (Unspecified)
system.caches.RequestType.LD.miss_latency_hist_seqr::mean   312.941170                       (Unspecified)
system.caches.RequestType.LD.miss_latency_hist_seqr::gmean    72.677564                       (Unspecified)
system.caches.RequestType.LD.miss_latency_hist_seqr::stdev   487.647964                       (Unspecified)
system.caches.RequestType.LD.miss_latency_hist_seqr |    22490491     91.68%     91.68% |     1727419      7.04%     98.72% |      295711      1.21%     99.92% |       18106      0.07%    100.00% |         995      0.00%    100.00% |         103      0.00%    100.00% |           3      0.00%    100.00% |           0      0.00%    100.00% |           0      0.00%    100.00% |           0      0.00%    100.00% (Unspecified)
system.caches.RequestType.LD.miss_latency_hist_seqr::total     24532828                       (Unspecified)
system.caches.RequestType.ST.latency_hist_seqr::bucket_size          512                       (Unspecified)
system.caches.RequestType.ST.latency_hist_seqr::max_bucket         5119                       (Unspecified)
system.caches.RequestType.ST.latency_hist_seqr::samples      1093874                       (Unspecified)
system.caches.RequestType.ST.latency_hist_seqr::mean     6.262657                       (Unspecified)
system.caches.RequestType.ST.latency_hist_seqr::gmean     1.112700                       (Unspecified)
system.caches.RequestType.ST.latency_hist_seqr::stdev    80.799105                       (Unspecified)
system.caches.RequestType.ST.latency_hist_seqr |     1089022     99.56%     99.56% |        3046      0.28%     99.83% |         852      0.08%     99.91% |         532      0.05%     99.96% |         324      0.03%     99.99% |          57      0.01%    100.00% |          36      0.00%    100.00% |           5      0.00%    100.00% |           0      0.00%    100.00% |           0      0.00%    100.00% (Unspecified)
system.caches.RequestType.ST.latency_hist_seqr::total      1093874                       (Unspecified)
system.caches.RequestType.ST.hit_latency_hist_seqr::bucket_size          512                       (Unspecified)
system.caches.RequestType.ST.hit_latency_hist_seqr::max_bucket         5119                       (Unspecified)
system.caches.RequestType.ST.hit_latency_hist_seqr::samples      1072029                       (Unspecified)
system.caches.RequestType.ST.hit_latency_hist_seqr::mean     1.361456                       (Unspecified)
system.caches.RequestType.ST.hit_latency_hist_seqr::gmean     1.030214                       (Unspecified)
system.caches.RequestType.ST.hit_latency_hist_seqr::stdev    24.052866                       (Unspecified)
system.caches.RequestType.ST.hit_latency_hist_seqr |     1071801     99.98%     99.98% |          70      0.01%     99.99% |          58      0.01%     99.99% |          37      0.00%     99.99% |          53      0.00%    100.00% |           1      0.00%    100.00% |           7      0.00%    100.00% |           2      0.00%    100.00% |           0      0.00%    100.00% |           0      0.00%    100.00% (Unspecified)
system.caches.RequestType.ST.hit_latency_hist_seqr::total      1072029                       (Unspecified)
system.caches.RequestType.ST.miss_latency_hist_seqr::bucket_size          512                       (Unspecified)
system.caches.RequestType.ST.miss_latency_hist_seqr::max_bucket         5119                       (Unspecified)
system.caches.RequestType.ST.miss_latency_hist_seqr::samples        21845                       (Unspecified)
system.caches.RequestType.ST.miss_latency_hist_seqr::mean   246.785901                       (Unspecified)
system.caches.RequestType.ST.miss_latency_hist_seqr::gmean    48.745805                       (Unspecified)
system.caches.RequestType.ST.miss_latency_hist_seqr::stdev   489.386380                       (Unspecified)
system.caches.RequestType.ST.miss_latency_hist_seqr |       17221     78.83%     78.83% |        2976     13.62%     92.46% |         794      3.63%     96.09% |         495      2.27%     98.36% |         271      1.24%     99.60% |          56      0.26%     99.85% |          29      0.13%     99.99% |           3      0.01%    100.00% |           0      0.00%    100.00% |           0      0.00%    100.00% (Unspecified)
system.caches.RequestType.ST.miss_latency_hist_seqr::total        21845                       (Unspecified)
system.caches.RequestType.IFETCH.latency_hist_seqr::bucket_size          512                       (Unspecified)
system.caches.RequestType.IFETCH.latency_hist_seqr::max_bucket         5119                       (Unspecified)
system.caches.RequestType.IFETCH.latency_hist_seqr::samples      4942524                       (Unspecified)
system.caches.RequestType.IFETCH.latency_hist_seqr::mean     2.865526                       (Unspecified)
system.caches.RequestType.IFETCH.latency_hist_seqr::gmean     1.062449                       (Unspecified)
system.caches.RequestType.IFETCH.latency_hist_seqr::stdev    27.453810                       (Unspecified)
[...]
system.o3Cpu7.iew.squashCycles                 127477                       # Number of cycles IEW is squashing (Cycle)
system.o3Cpu7.iew.blockCycles                33823406                       # Number of cycles IEW is blocking (Cycle)
system.o3Cpu7.iew.unblockCycles              42314609                       # Number of cycles IEW is unblocking (Cycle)
system.o3Cpu7.iew.dispatchedInsts            38816314                       # Number of instructions dispatched to IQ (Count)
system.o3Cpu7.iew.dispSquashedInsts             12585                       # Number of squashed instructions skipped by dispatch (Count)
system.o3Cpu7.iew.dispLoadInsts               7473779                       # Number of dispatched load instructions (Count)
system.o3Cpu7.iew.dispStoreInsts               204301                       # Number of dispatched store instructions (Count)
system.o3Cpu7.iew.dispNonSpecInsts               3887                       # Number of dispatched non-speculative instructions (Count)
system.o3Cpu7.iew.iqFullEvents                  75246                       # Number of times the IQ has become full, causing a stall (Count)
system.o3Cpu7.iew.lsqFullEvents              42166338                       # Number of times the LSQ has become full, causing a stall (Count)
system.o3Cpu7.iew.memOrderViolationEvents         6041                       # Number of memory order violations (Count)
system.o3Cpu7.iew.predictedTakenIncorrect        87489                       # Number of branches that were predicted taken incorrectly (Count)
system.o3Cpu7.iew.predictedNotTakenIncorrect        40220                       # Number of branches that were predicted not taken incorrectly (Count)
system.o3Cpu7.iew.branchMispredicts            127709                       # Number of branch mispredicts detected at execute (Count)
system.o3Cpu7.iew.instsToCommit              37073741                       # Cumulative count of insts sent to commit (Count)
system.o3Cpu7.iew.writebackCount             37028034                       # Cumulative count of insts written-back (Count)
system.o3Cpu7.iew.producerInst               30867079                       # Number of instructions producing a value (Count)
system.o3Cpu7.iew.consumerInst               42379815                       # Number of instructions consuming a value (Count)
system.o3Cpu7.iew.wbRate                     0.139264                       # Insts written-back per cycle ((Count/Cycle))
system.o3Cpu7.iew.wbFanout                   0.728344                       # Average fanout of values written-back ((Count/Count))
system.o3Cpu7.interrupts.clk_domain.clock         3200                       # Clock period in ticks (Tick)
system.o3Cpu7.lsq0.forwLoads                     9053                       # Number of loads that had data forwarded from stores (Count)
system.o3Cpu7.lsq0.squashedLoads               700562                       # Number of loads squashed (Count)
system.o3Cpu7.lsq0.ignoredResponses                 5                       # Number of memory responses ignored because the instruction is squashed (Count)
system.o3Cpu7.lsq0.memOrderViolation             6041                       # Number of memory ordering violations (Count)
system.o3Cpu7.lsq0.squashedStores               70940                       # Number of stores squashed (Count)
system.o3Cpu7.lsq0.rescheduledLoads                53                       # Number of loads that were rescheduled (Count)
system.o3Cpu7.lsq0.blockedByCache              108694                       # Number of times an access to memory failed due to the cache being blocked (Count)
system.o3Cpu7.lsq0.loadToUse::samples         6773185                       # Distribution of cycle latency between the first time a load is issued and its completion (Unspecified)
system.o3Cpu7.lsq0.loadToUse::mean         307.019120                       # Distribution of cycle latency between the first time a load is issued and its completion (Unspecified)
system.o3Cpu7.lsq0.loadToUse::stdev        465.650140                       # Distribution of cycle latency between the first time a load is issued and its completion (Unspecified)
system.o3Cpu7.lsq0.loadToUse::0-9             1882512     27.79%     27.79% # Distribution of cycle latency between the first time a load is issued and its completion (Unspecified)
system.o3Cpu7.lsq0.loadToUse::10-19            587104      8.67%     36.46% # Distribution of cycle latency between the first time a load is issued and its completion (Unspecified)
system.o3Cpu7.lsq0.loadToUse::20-29            594441      8.78%     45.24% # Distribution of cycle latency between the first time a load is issued and its completion (Unspecified)
system.o3Cpu7.lsq0.loadToUse::30-39            370538      5.47%     50.71% # Distribution of cycle latency between the first time a load is issued and its completion (Unspecified)
system.o3Cpu7.lsq0.loadToUse::40-49            266146      3.93%     54.64% # Distribution of cycle latency between the first time a load is issued and its completion (Unspecified)
system.o3Cpu7.lsq0.loadToUse::50-59            168644      2.49%     57.13% # Distribution of cycle latency between the first time a load is issued and its completion (Unspecified)
system.o3Cpu7.lsq0.loadToUse::60-69             84331      1.25%     58.37% # Distribution of cycle latency between the first time a load is issued and its completion (Unspecified)
system.o3Cpu7.lsq0.loadToUse::70-79             55552      0.82%     59.19% # Distribution of cycle latency between the first time a load is issued and its completion (Unspecified)
system.o3Cpu7.lsq0.loadToUse::80-89             46810      0.69%     59.88% # Distribution of cycle latency between the first time a load is issued and its completion (Unspecified)
system.o3Cpu7.lsq0.loadToUse::90-99             38069      0.56%     60.45% # Distribution of cycle latency between the first time a load is issued and its completion (Unspecified)
system.o3Cpu7.lsq0.loadToUse::100-109           23945      0.35%     60.80% # Distribution of cycle latency between the first time a load is issued and its completion (Unspecified)
system.o3Cpu7.lsq0.loadToUse::110-119           16366      0.24%     61.04% # Distribution of cycle latency between the first time a load is issued and its completion (Unspecified)
system.o3Cpu7.lsq0.loadToUse::120-129           24395      0.36%     61.40% # Distribution of cycle latency between the first time a load is issued and its completion (Unspecified)
system.o3Cpu7.lsq0.loadToUse::130-139           29420      0.43%     61.84% # Distribution of cycle latency between the first time a load is issued and its completion (Unspecified)
system.o3Cpu7.lsq0.loadToUse::140-149           24885      0.37%     62.20% # Distribution of cycle latency between the first time a load is issued and its completion (Unspecified)
system.o3Cpu7.lsq0.loadToUse::150-159           14205      0.21%     62.41% # Distribution of cycle latency between the first time a load is issued and its completion (Unspecified)
system.o3Cpu7.lsq0.loadToUse::160-169            9252      0.14%     62.55% # Distribution of cycle latency between the first time a load is issued and its completion (Unspecified)
system.o3Cpu7.lsq0.loadToUse::170-179           17365      0.26%     62.81% # Distribution of cycle latency between the first time a load is issued and its completion (Unspecified)
system.o3Cpu7.lsq0.loadToUse::180-189           23751      0.35%     63.16% # Distribution of cycle latency between the first time a load is issued and its completion (Unspecified)
system.o3Cpu7.lsq0.loadToUse::190-199           21126      0.31%     63.47% # Distribution of cycle latency between the first time a load is issued and its completion (Unspecified)
system.o3Cpu7.lsq0.loadToUse::200-209           13847      0.20%     63.67% # Distribution of cycle latency between the first time a load is issued and its completion (Unspecified)
system.o3Cpu7.lsq0.loadToUse::210-219            9823      0.15%     63.82% # Distribution of cycle latency between the first time a load is issued and its completion (Unspecified)
system.o3Cpu7.lsq0.loadToUse::220-229           17648      0.26%     64.08% # Distribution of cycle latency between the first time a load is issued and its completion (Unspecified)
system.o3Cpu7.lsq0.loadToUse::230-239           24488      0.36%     64.44% # Distribution of cycle latency between the first time a load is issued and its completion (Unspecified)
system.o3Cpu7.lsq0.loadToUse::240-249           22313      0.33%     64.77% # Distribution of cycle latency between the first time a load is issued and its completion (Unspecified)
system.o3Cpu7.lsq0.loadToUse::250-259           16093      0.24%     65.01% # Distribution of cycle latency between the first time a load is issued and its completion (Unspecified)
system.o3Cpu7.lsq0.loadToUse::260-269           13645      0.20%     65.21% # Distribution of cycle latency between the first time a load is issued and its completion (Unspecified)
system.o3Cpu7.lsq0.loadToUse::270-279           25851      0.38%     65.59% # Distribution of cycle latency between the first time a load is issued and its completion (Unspecified)
system.o3Cpu7.lsq0.loadToUse::280-289           39667      0.59%     66.18% # Distribution of cycle latency between the first time a load is issued and its completion (Unspecified)
system.o3Cpu7.lsq0.loadToUse::290-299           30332      0.45%     66.62% # Distribution of cycle latency between the first time a load is issued and its completion (Unspecified)
system.o3Cpu7.lsq0.loadToUse::overflows       2260621     33.38%    100.00% # Distribution of cycle latency between the first time a load is issued and its completion (Unspecified)
system.o3Cpu7.lsq0.loadToUse::min_value             2                       # Distribution of cycle latency between the first time a load is issued and its completion (Unspecified)
system.o3Cpu7.lsq0.loadToUse::max_value          5888                       # Distribution of cycle latency between the first time a load is issued and its completion (Unspecified)
system.o3Cpu7.lsq0.loadToUse::total           6773185                       # Distribution of cycle latency between the first time a load is issued and its completion (Unspecified)
system.o3Cpu7.mmu.dtb.rdAccesses              7777298                       # TLB accesses on read requests (Count)
system.o3Cpu7.mmu.dtb.wrAccesses               160053                       # TLB accesses on write requests (Count)
system.o3Cpu7.mmu.dtb.rdMisses                 426887                       # TLB misses on read requests (Count)
system.o3Cpu7.mmu.dtb.wrMisses                  10576                       # TLB misses on write requests (Count)
system.o3Cpu7.mmu.dtb.walker.power_state.pwrStateResidencyTicks::UNDEFINED  54189183200                       # Cumulative time (in ticks) in various power states (Tick)
system.o3Cpu7.mmu.itb.rdAccesses                    0                       # TLB accesses on read requests (Count)
system.o3Cpu7.mmu.itb.wrAccesses               597175                       # TLB accesses on write requests (Count)
system.o3Cpu7.mmu.itb.rdMisses                      0                       # TLB misses on read requests (Count)
system.o3Cpu7.mmu.itb.wrMisses                    269                       # TLB misses on write requests (Count)
system.o3Cpu7.mmu.itb.walker.power_state.pwrStateResidencyTicks::UNDEFINED  54189183200                       # Cumulative time (in ticks) in various power states (Tick)
system.o3Cpu7.power_state.pwrStateResidencyTicks::OFF  54189183200                       # Cumulative time (in ticks) in various power states (Tick)
system.o3Cpu7.rename.squashCycles              127477                       # Number of cycles rename is squashing (Cycle)
system.o3Cpu7.rename.idleCycles               1971360                       # Number of cycles rename is idle (Cycle)
system.o3Cpu7.rename.blockCycles            106262767                       # Number of cycles rename is blocking (Cycle)
system.o3Cpu7.rename.serializeStallCycles       764765                       # count of cycles rename stalled for serializing inst (Cycle)
system.o3Cpu7.rename.runCycles                4869856                       # Number of cycles rename is running (Cycle)
system.o3Cpu7.rename.unblockCycles          151064979                       # Number of cycles rename is unblocking (Cycle)
system.o3Cpu7.rename.renamedInsts            39753207                       # Number of instructions processed by rename (Count)
system.o3Cpu7.rename.ROBFullEvents            1791374                       # Number of times rename has blocked due to ROB full (Count)
system.o3Cpu7.rename.IQFullEvents             6977675                       # Number of times rename has blocked due to IQ full (Count)
system.o3Cpu7.rename.LQFullEvents           149225593                       # Number of times rename has blocked due to LQ full (Count)
system.o3Cpu7.rename.SQFullEvents               89542                       # Number of times rename has blocked due to SQ full (Count)
system.o3Cpu7.rename.renamedOperands         73112156                       # Number of destination operands rename has renamed (Count)
system.o3Cpu7.rename.lookups                128563170                       # Number of register rename lookups that rename has made (Count)
system.o3Cpu7.rename.intLookups              38517043                       # Number of integer rename lookups (Count)
system.o3Cpu7.rename.fpLookups               14101811                       # Number of floating rename lookups (Count)
system.o3Cpu7.rename.committedMaps           64574188                       # Number of HB maps that are committed (Count)
system.o3Cpu7.rename.undoneMaps               8537664                       # Number of HB maps that are undone due to squashing (Count)
system.o3Cpu7.rename.serializing                 2361                       # count of serializing insts renamed (Count)
system.o3Cpu7.rename.tempSerializing             2425                       # count of temporary serializing insts renamed (Count)
system.o3Cpu7.rename.skidInsts                8981062                       # count of insts added to the skid buffer (Count)
system.o3Cpu7.rob.reads                     299532180                       # The number of ROB reads (Count)
system.o3Cpu7.rob.writes                     78200684                       # The number of ROB writes (Count)
system.o3Cpu7.thread_0.numInsts              17749749                       # Number of Instructions committed (Count)
system.o3Cpu7.thread_0.numOps                34780101                       # Number of Ops committed (Count)
system.o3Cpu7.thread_0.numMemRefs                   0                       # Number of Memory References (Count)
system.pc.bad_addr.power_state.pwrStateResidencyTicks::UNDEFINED  54189183200                       # Cumulative time (in ticks) in various power states (Tick)
system.pc.com_1.power_state.pwrStateResidencyTicks::UNDEFINED  54189183200                       # Cumulative time (in ticks) in various power states (Tick)
system.pc.default_bus.power_state.pwrStateResidencyTicks::UNDEFINED  54189183200                       # Cumulative time (in ticks) in various power states (Tick)
system.pc.empty_isa.power_state.pwrStateResidencyTicks::UNDEFINED  54189183200                       # Cumulative time (in ticks) in various power states (Tick)
system.pc.fake_com_2.power_state.pwrStateResidencyTicks::UNDEFINED  54189183200                       # Cumulative time (in ticks) in various power states (Tick)
system.pc.fake_com_3.power_state.pwrStateResidencyTicks::UNDEFINED  54189183200                       # Cumulative time (in ticks) in various power states (Tick)
system.pc.fake_com_4.power_state.pwrStateResidencyTicks::UNDEFINED  54189183200                       # Cumulative time (in ticks) in various power states (Tick)
system.pc.fake_floppy.power_state.pwrStateResidencyTicks::UNDEFINED  54189183200                       # Cumulative time (in ticks) in various power states (Tick)
system.pc.pci_host.power_state.pwrStateResidencyTicks::UNDEFINED  54189183200                       # Cumulative time (in ticks) in various power states (Tick)
system.pc.south_bridge.cmos.power_state.pwrStateResidencyTicks::UNDEFINED  54189183200                       # Cumulative time (in ticks) in various power states (Tick)
system.pc.south_bridge.dma1.power_state.pwrStateResidencyTicks::UNDEFINED  54189183200                       # Cumulative time (in ticks) in various power states (Tick)
system.pc.south_bridge.ide.disks0.IdeDisk.dmaReadFullPages            0                       # Number of full page size DMA reads (not PRD). (Count)
system.pc.south_bridge.ide.disks0.IdeDisk.dmaReadBytes            0                       # Number of bytes transfered via DMA reads (not PRD). (Byte)
system.pc.south_bridge.ide.disks0.IdeDisk.dmaReadTxs            0                       # Number of DMA read transactions (not PRD). (Count)
system.pc.south_bridge.ide.disks0.IdeDisk.dmaWriteFullPages            0                       # Number of full page size DMA writes. (Count)
system.pc.south_bridge.ide.disks0.IdeDisk.dmaWriteBytes            0                       # Number of bytes transfered via DMA writes. (Byte)
system.pc.south_bridge.ide.disks0.IdeDisk.dmaWriteTxs            0                       # Number of DMA write transactions. (Count)
system.pc.south_bridge.ide.disks1.IdeDisk.dmaReadFullPages            0                       # Number of full page size DMA reads (not PRD). (Count)
system.pc.south_bridge.ide.disks1.IdeDisk.dmaReadBytes            0                       # Number of bytes transfered via DMA reads (not PRD). (Byte)
system.pc.south_bridge.ide.disks1.IdeDisk.dmaReadTxs            0                       # Number of DMA read transactions (not PRD). (Count)
system.pc.south_bridge.ide.disks1.IdeDisk.dmaWriteFullPages            0                       # Number of full page size DMA writes. (Count)
system.pc.south_bridge.ide.disks1.IdeDisk.dmaWriteBytes            0                       # Number of bytes transfered via DMA writes. (Byte)
system.pc.south_bridge.ide.disks1.IdeDisk.dmaWriteTxs            0                       # Number of DMA write transactions. (Count)
system.pc.south_bridge.ide.power_state.pwrStateResidencyTicks::UNDEFINED  54189183200                       # Cumulative time (in ticks) in various power states (Tick)
system.pc.south_bridge.io_apic.power_state.pwrStateResidencyTicks::UNDEFINED  54189183200                       # Cumulative time (in ticks) in various power states (Tick)
system.pc.south_bridge.keyboard.power_state.pwrStateResidencyTicks::UNDEFINED  54189183200                       # Cumulative time (in ticks) in various power states (Tick)
system.pc.south_bridge.pic1.power_state.pwrStateResidencyTicks::UNDEFINED  54189183200                       # Cumulative time (in ticks) in various power states (Tick)
system.pc.south_bridge.pic2.power_state.pwrStateResidencyTicks::UNDEFINED  54189183200                       # Cumulative time (in ticks) in various power states (Tick)
system.pc.south_bridge.pit.power_state.pwrStateResidencyTicks::UNDEFINED  54189183200                       # Cumulative time (in ticks) in various power states (Tick)
system.pc.south_bridge.speaker.power_state.pwrStateResidencyTicks::UNDEFINED  54189183200                       # Cumulative time (in ticks) in various power states (Tick)
system.workload.inst.arm                            0                       # number of arm instructions executed (Count)
system.workload.inst.quiesce                        0                       # number of quiesce instructions executed (Count)

---------- End Simulation Statistics   ----------
