
---------- Begin Simulation Statistics ----------
simSeconds                                   0.057969                       # Number of seconds simulated (Second)
simTicks                                  57968965200                       # Number of ticks simulated (Tick)
finalTick                                217961371072600                       # Number of ticks from beginning of simulation (restored from checkpoints and never reset) (Tick)
simFreq                                  1000000000000                       # The number of ticks per simulated second ((Tick/Second))
hostSeconds                                  10913.41                       # Real time elapsed on the host (Second)
hostTickRate                                  5311717                       # The number of ticks simulated per host second (ticks/s) ((Tick/Second))
hostMemory                                   19878748                       # Number of bytes of host memory used (Byte)
simInsts                                    130163753                       # Number of instructions simulated (Count)
simOps                                      225070205                       # Number of ops (including micro ops) simulated (Count)
hostInstRate                                    11927                       # Simulator instruction rate (inst/s) ((Count/Second))
hostOpRate                                      20623                       # Simulator op (including micro ops) rate (op/s) ((Count/Second))
system.caches.delayHistogram::bucket_size           16                       # delay histogram for all message (Unspecified)
system.caches.delayHistogram::max_bucket          159                       # delay histogram for all message (Unspecified)
system.caches.delayHistogram::samples        40433363                       # delay histogram for all message (Unspecified)
system.caches.delayHistogram::mean           0.863108                       # delay histogram for all message (Unspecified)
system.caches.delayHistogram::stdev          2.954726                       # delay histogram for all message (Unspecified)
system.caches.delayHistogram             |    40064943     99.09%     99.09% |      344319      0.85%     99.94% |       23003      0.06%    100.00% |        1071      0.00%    100.00% |          26      0.00%    100.00% |           1      0.00%    100.00% |           0      0.00%    100.00% |           0      0.00%    100.00% |           0      0.00%    100.00% |           0      0.00%    100.00% # delay histogram for all message (Unspecified)
system.caches.delayHistogram::total          40433363                       # delay histogram for all message (Unspecified)
system.caches.m_outstandReqHistSeqr::bucket_size            2                       (Unspecified)
system.caches.m_outstandReqHistSeqr::max_bucket           19                       (Unspecified)
system.caches.m_outstandReqHistSeqr::samples    104680976                       (Unspecified)
system.caches.m_outstandReqHistSeqr::mean     2.251435                       (Unspecified)
system.caches.m_outstandReqHistSeqr::gmean     1.812041                       (Unspecified)
system.caches.m_outstandReqHistSeqr::stdev     1.692946                       (Unspecified)
system.caches.m_outstandReqHistSeqr      |    47557303     45.43%     45.43% |    38830321     37.09%     82.52% |    12070598     11.53%     94.06% |     4313407      4.12%     98.18% |     1563715      1.49%     99.67% |      245200      0.23%     99.90% |       68175      0.07%     99.97% |       26563      0.03%     99.99% |        5694      0.01%    100.00% |           0      0.00%    100.00% (Unspecified)
system.caches.m_outstandReqHistSeqr::total    104680976                       (Unspecified)
system.caches.m_latencyHistSeqr::bucket_size          512                       (Unspecified)
system.caches.m_latencyHistSeqr::max_bucket         5119                       (Unspecified)
system.caches.m_latencyHistSeqr::samples    104685900                       (Unspecified)
system.caches.m_latencyHistSeqr::mean       32.271170                       (Unspecified)
system.caches.m_latencyHistSeqr::gmean       1.402259                       (Unspecified)
system.caches.m_latencyHistSeqr::stdev     176.391333                       (Unspecified)
system.caches.m_latencyHistSeqr          |   101388340     96.85%     96.85% |     2290833      2.19%     99.04% |      782453      0.75%     99.79% |      140304      0.13%     99.92% |       56910      0.05%     99.97% |       25786      0.02%    100.00% |        1249      0.00%    100.00% |          22      0.00%    100.00% |           3      0.00%    100.00% |           0      0.00%    100.00% (Unspecified)
system.caches.m_latencyHistSeqr::total      104685900                       (Unspecified)
system.caches.m_hitLatencyHistSeqr::bucket_size          512                       (Unspecified)
system.caches.m_hitLatencyHistSeqr::max_bucket         5119                       (Unspecified)
system.caches.m_hitLatencyHistSeqr::samples     97330100                       (Unspecified)
system.caches.m_hitLatencyHistSeqr::mean     1.006941                       (Unspecified)
system.caches.m_hitLatencyHistSeqr::gmean     1.002824                       (Unspecified)
system.caches.m_hitLatencyHistSeqr::stdev     1.716750                       (Unspecified)
system.caches.m_hitLatencyHistSeqr       |    97329830    100.00%    100.00% |         175      0.00%    100.00% |          80      0.00%    100.00% |          10      0.00%    100.00% |           2      0.00%    100.00% |           3      0.00%    100.00% |           0      0.00%    100.00% |           0      0.00%    100.00% |           0      0.00%    100.00% |           0      0.00%    100.00% (Unspecified)
system.caches.m_hitLatencyHistSeqr::total     97330100                       (Unspecified)
system.caches.m_missLatencyHistSeqr::bucket_size          512                       (Unspecified)
system.caches.m_missLatencyHistSeqr::max_bucket         5119                       (Unspecified)
system.caches.m_missLatencyHistSeqr::samples      7355800                       (Unspecified)
system.caches.m_missLatencyHistSeqr::mean   445.951599                       (Unspecified)
system.caches.m_missLatencyHistSeqr::gmean   118.417821                       (Unspecified)
system.caches.m_missLatencyHistSeqr::stdev   508.626963                       (Unspecified)
system.caches.m_missLatencyHistSeqr      |     4058510     55.17%     55.17% |     2290658     31.14%     86.32% |      782373     10.64%     96.95% |      140294      1.91%     98.86% |       56908      0.77%     99.63% |       25783      0.35%     99.98% |        1249      0.02%    100.00% |          22      0.00%    100.00% |           3      0.00%    100.00% |           0      0.00%    100.00% (Unspecified)
system.caches.m_missLatencyHistSeqr::total      7355800                       (Unspecified)
system.caches.delayVCHist.vnet_0::bucket_size           16                       # delay histogram for vnet_0 (Unspecified)
system.caches.delayVCHist.vnet_0::max_bucket          159                       # delay histogram for vnet_0 (Unspecified)
system.caches.delayVCHist.vnet_0::samples     16892933                       # delay histogram for vnet_0 (Unspecified)
system.caches.delayVCHist.vnet_0::mean       1.020531                       # delay histogram for vnet_0 (Unspecified)
system.caches.delayVCHist.vnet_0::stdev      2.797354                       # delay histogram for vnet_0 (Unspecified)
system.caches.delayVCHist.vnet_0         |    16832464     99.64%     99.64% |       60209      0.36%    100.00% |         213      0.00%    100.00% |          30      0.00%    100.00% |          16      0.00%    100.00% |           1      0.00%    100.00% |           0      0.00%    100.00% |           0      0.00%    100.00% |           0      0.00%    100.00% |           0      0.00%    100.00% # delay histogram for vnet_0 (Unspecified)
system.caches.delayVCHist.vnet_0::total      16892933                       # delay histogram for vnet_0 (Unspecified)
system.caches.delayVCHist.vnet_1::bucket_size            8                       # delay histogram for vnet_1 (Unspecified)
system.caches.delayVCHist.vnet_1::max_bucket           79                       # delay histogram for vnet_1 (Unspecified)
system.caches.delayVCHist.vnet_1::samples     21314349                       # delay histogram for vnet_1 (Unspecified)
system.caches.delayVCHist.vnet_1::mean       0.828433                       # delay histogram for vnet_1 (Unspecified)
system.caches.delayVCHist.vnet_1::stdev      3.203278                       # delay histogram for vnet_1 (Unspecified)
system.caches.delayVCHist.vnet_1         |    20328750     95.38%     95.38% |      677648      3.18%     98.56% |      218298      1.02%     99.58% |       65812      0.31%     99.89% |       18468      0.09%     99.97% |        4322      0.02%    100.00% |         928      0.00%    100.00% |         113      0.00%    100.00% |          10      0.00%    100.00% |           0      0.00%    100.00% # delay histogram for vnet_1 (Unspecified)
system.caches.delayVCHist.vnet_1::total      21314349                       # delay histogram for vnet_1 (Unspecified)
system.caches.delayVCHist.vnet_2::bucket_size            1                       # delay histogram for vnet_2 (Unspecified)
system.caches.delayVCHist.vnet_2::max_bucket            9                       # delay histogram for vnet_2 (Unspecified)
system.caches.delayVCHist.vnet_2::samples      2226081                       # delay histogram for vnet_2 (Unspecified)
system.caches.delayVCHist.vnet_2::mean       0.000489                       # delay histogram for vnet_2 (Unspecified)
system.caches.delayVCHist.vnet_2::stdev      0.031319                       # delay histogram for vnet_2 (Unspecified)
system.caches.delayVCHist.vnet_2         |     2225538     99.98%     99.98% |           0      0.00%     99.98% |         542      0.02%    100.00% |           0      0.00%    100.00% |           1      0.00%    100.00% |           0      0.00%    100.00% |           0      0.00%    100.00% |           0      0.00%    100.00% |           0      0.00%    100.00% |           0      0.00%    100.00% # delay histogram for vnet_2 (Unspecified)
system.caches.delayVCHist.vnet_2::total       2226081                       # delay histogram for vnet_2 (Unspecified)
system.caches.L1Cache_Controller.Load    |     8260412     12.52%     12.52% |     8260195     12.52%     25.04% |     8237527     12.49%     37.53% |     8252737     12.51%     50.04% |     8278984     12.55%     62.59% |     8259680     12.52%     75.11% |     8192383     12.42%     87.53% |     8227874     12.47%    100.00% (Unspecified)
system.caches.L1Cache_Controller.Load::total     65969792                       (Unspecified)
system.caches.L1Cache_Controller.Ifetch  |     3610892     12.52%     12.52% |     3589081     12.44%     24.96% |     3598310     12.48%     37.44% |     3614306     12.53%     49.97% |     3613205     12.53%     62.50% |     3597585     12.47%     74.97% |     3608897     12.51%     87.48% |     3611299     12.52%    100.00% (Unspecified)
system.caches.L1Cache_Controller.Ifetch::total     28843575                       (Unspecified)
system.caches.L1Cache_Controller.Store   |     1244917     12.61%     12.61% |     1230255     12.46%     25.07% |     1231214     12.47%     37.54% |     1235442     12.51%     50.06% |     1235405     12.51%     62.57% |     1232613     12.49%     75.06% |     1229701     12.46%     87.51% |     1232999     12.49%    100.00% (Unspecified)
system.caches.L1Cache_Controller.Store::total      9872546                       (Unspecified)
system.caches.L1Cache_Controller.Inv     |      213089     12.84%     12.84% |      207075     12.48%     25.32% |      206538     12.44%     37.76% |      206738     12.46%     50.22% |      206534     12.44%     62.66% |      206212     12.42%     75.09% |      206443     12.44%     87.53% |      207026     12.47%    100.00% (Unspecified)
system.caches.L1Cache_Controller.Inv::total      1659655                       (Unspecified)
system.caches.L1Cache_Controller.L1_Replacement |      895385     12.53%     12.53% |      892676     12.49%     25.02% |      892340     12.49%     37.50% |      895249     12.53%     50.03% |      892903     12.49%     62.52% |      894696     12.52%     75.04% |      890282     12.46%     87.50% |      893320     12.50%    100.00% (Unspecified)
system.caches.L1Cache_Controller.L1_Replacement::total      7146851                       (Unspecified)
system.caches.L1Cache_Controller.Fwd_GETX |          23     11.39%     11.39% |          34     16.83%     28.22% |          25     12.38%     40.59% |          21     10.40%     50.99% |          23     11.39%     62.38% |          30     14.85%     77.23% |          21     10.40%     87.62% |          25     12.38%    100.00% (Unspecified)
system.caches.L1Cache_Controller.Fwd_GETX::total          202                       (Unspecified)
system.caches.L1Cache_Controller.Fwd_GETS |       71722     12.67%     12.67% |       70817     12.51%     25.17% |       70489     12.45%     37.62% |       70817     12.51%     50.13% |       70530     12.46%     62.59% |       70221     12.40%     74.99% |       70564     12.46%     87.45% |       71064     12.55%    100.00% (Unspecified)
system.caches.L1Cache_Controller.Fwd_GETS::total       566224                       (Unspecified)
system.caches.L1Cache_Controller.Data    |         129    100.00%    100.00% |           0      0.00%    100.00% |           0      0.00%    100.00% |           0      0.00%    100.00% |           0      0.00%    100.00% |           0      0.00%    100.00% |           0      0.00%    100.00% |           0      0.00%    100.00% (Unspecified)
system.caches.L1Cache_Controller.Data::total          129                       (Unspecified)
system.caches.L1Cache_Controller.Data_Exclusive |      581079     12.50%     12.50% |      580939     12.49%     24.99% |      580259     12.48%     37.47% |      582306     12.52%     49.99% |      580743     12.49%     62.48% |      582943     12.54%     75.02% |      579957     12.47%     87.49% |      581603     12.51%    100.00% (Unspecified)
system.caches.L1Cache_Controller.Data_Exclusive::total      4649829                       (Unspecified)
system.caches.L1Cache_Controller.DataS_fromL1 |       71118     12.56%     12.56% |       71183     12.57%     25.13% |       71034     12.55%     37.68% |       71005     12.54%     50.22% |       70378     12.43%     62.65% |       70537     12.46%     75.10% |       70306     12.42%     87.52% |       70663     12.48%    100.00% (Unspecified)
system.caches.L1Cache_Controller.DataS_fromL1::total       566224                       (Unspecified)
system.caches.L1Cache_Controller.Data_all_Acks |      251087     12.62%     12.62% |      248072     12.46%     25.08% |      248418     12.48%     37.56% |      249231     12.52%     50.08% |      249113     12.52%     62.60% |      248574     12.49%     75.09% |      247347     12.43%     87.52% |      248458     12.48%    100.00% (Unspecified)
system.caches.L1Cache_Controller.Data_all_Acks::total      1990300                       (Unspecified)
system.caches.L1Cache_Controller.Ack     |       21178     13.23%     13.23% |       19514     12.19%     25.42% |       20081     12.55%     37.97% |       20130     12.58%     50.54% |       19565     12.22%     62.77% |       19862     12.41%     75.17% |       19759     12.34%     87.52% |       19978     12.48%    100.00% (Unspecified)
system.caches.L1Cache_Controller.Ack::total       160067                       (Unspecified)
system.caches.L1Cache_Controller.Ack_all |       19054     12.75%     12.75% |       18355     12.28%     25.03% |       18818     12.59%     37.62% |       18826     12.60%     50.22% |       18460     12.35%     62.57% |       18678     12.50%     75.07% |       18439     12.34%     87.41% |       18817     12.59%    100.00% (Unspecified)
system.caches.L1Cache_Controller.Ack_all::total       149447                       (Unspecified)
system.caches.L1Cache_Controller.WB_Ack  |      522801     12.58%     12.58% |      518076     12.47%     25.05% |      518236     12.47%     37.52% |      520125     12.52%     50.04% |      519309     12.50%     62.54% |      520967     12.54%     75.07% |      517068     12.44%     87.52% |      518746     12.48%    100.00% (Unspecified)
system.caches.L1Cache_Controller.WB_Ack::total      4155328                       (Unspecified)
system.caches.L1Cache_Controller.NP.Load |      891004     12.51%     12.51% |      890316     12.50%     25.00% |      889782     12.49%     37.49% |      892727     12.53%     50.02% |      889505     12.49%     62.51% |      892206     12.52%     75.03% |      887748     12.46%     87.50% |      890808     12.50%    100.00% (Unspecified)
system.caches.L1Cache_Controller.NP.Load::total      7124096                       (Unspecified)
system.caches.L1Cache_Controller.NP.Ifetch |        1901     22.92%     22.92% |         764      9.21%     32.13% |         956     11.53%     43.65% |         956     11.53%     55.18% |         806      9.72%     64.89% |         980     11.81%     76.71% |         971     11.71%     88.41% |         961     11.59%    100.00% (Unspecified)
system.caches.L1Cache_Controller.NP.Ifetch::total         8295                       (Unspecified)
system.caches.L1Cache_Controller.NP.Store |        2641     16.35%     16.35% |        1808     11.20%     27.55% |        1813     11.23%     38.78% |        1781     11.03%     49.81% |        2812     17.41%     67.22% |        1734     10.74%     77.96% |        1786     11.06%     89.02% |        1773     10.98%    100.00% (Unspecified)
system.caches.L1Cache_Controller.NP.Store::total        16148                       (Unspecified)
system.caches.L1Cache_Controller.NP.Inv  |      171523     12.93%     12.93% |      165345     12.46%     25.38% |      165092     12.44%     37.83% |      165248     12.45%     50.28% |      164975     12.43%     62.71% |      164896     12.43%     75.14% |      164713     12.41%     87.55% |      165247     12.45%    100.00% (Unspecified)
system.caches.L1Cache_Controller.NP.Inv::total      1327039                       (Unspecified)
system.caches.L1Cache_Controller.I.Load  |        2450     12.34%     12.34% |        2627     13.23%     25.57% |        2513     12.66%     38.23% |        2433     12.25%     50.48% |        2410     12.14%     62.62% |        2443     12.30%     74.92% |        2445     12.31%     87.23% |        2535     12.77%    100.00% (Unspecified)
system.caches.L1Cache_Controller.I.Load::total        19856                       (Unspecified)
system.caches.L1Cache_Controller.I.Ifetch |        5390     14.25%     14.25% |        4654     12.31%     26.56% |        4612     12.19%     38.75% |        4607     12.18%     50.93% |        4673     12.36%     63.29% |        4629     12.24%     75.53% |        4634     12.25%     87.78% |        4620     12.22%    100.00% (Unspecified)
system.caches.L1Cache_Controller.I.Ifetch::total        37819                       (Unspecified)
system.caches.L1Cache_Controller.I.Store |          24      9.88%      9.88% |          23      9.47%     19.34% |          31     12.76%     32.10% |          33     13.58%     45.68% |          26     10.70%     56.38% |          63     25.93%     82.30% |          22      9.05%     91.36% |          21      8.64%    100.00% (Unspecified)
system.caches.L1Cache_Controller.I.Store::total          243                       (Unspecified)
system.caches.L1Cache_Controller.I.L1_Replacement |       33496     12.26%     12.26% |       34261     12.54%     24.80% |       34113     12.49%     37.29% |       34222     12.53%     49.82% |       34263     12.54%     62.36% |       33977     12.44%     74.80% |       34441     12.61%     87.41% |       34392     12.59%    100.00% (Unspecified)
system.caches.L1Cache_Controller.I.L1_Replacement::total       273165                       (Unspecified)
system.caches.L1Cache_Controller.S.Load  |     4338562     12.51%     12.51% |     4358864     12.57%     25.09% |     4338447     12.51%     37.60% |     4338831     12.51%     50.12% |     4319529     12.46%     62.57% |     4347978     12.54%     75.12% |     4303038     12.41%     87.53% |     4324323     12.47%    100.00% (Unspecified)
system.caches.L1Cache_Controller.S.Load::total     34669572                       (Unspecified)
system.caches.L1Cache_Controller.S.Ifetch |     3603601     12.51%     12.51% |     3583663     12.44%     24.96% |     3592742     12.48%     37.43% |     3608743     12.53%     49.97% |     3607726     12.53%     62.49% |     3591976     12.47%     74.97% |     3603292     12.51%     87.48% |     3605718     12.52%    100.00% (Unspecified)
system.caches.L1Cache_Controller.S.Ifetch::total     28797461                       (Unspecified)
system.caches.L1Cache_Controller.S.Store |       18928     12.67%     12.67% |       18360     12.29%     24.97% |       18823     12.60%     37.57% |       18831     12.61%     50.18% |       18463     12.36%     62.54% |       18679     12.51%     75.05% |       18444     12.35%     87.40% |       18824     12.60%    100.00% (Unspecified)
system.caches.L1Cache_Controller.S.Store::total       149352                       (Unspecified)
system.caches.L1Cache_Controller.S.Inv   |       30049     12.79%     12.79% |       29443     12.53%     25.32% |       29153     12.41%     37.72% |       29402     12.51%     50.23% |       29282     12.46%     62.69% |       29068     12.37%     75.06% |       29203     12.43%     87.49% |       29401     12.51%    100.00% (Unspecified)
system.caches.L1Cache_Controller.S.Inv::total       235001                       (Unspecified)
system.caches.L1Cache_Controller.S.L1_Replacement |      339088     12.47%     12.47% |      340339     12.52%     24.99% |      339990     12.51%     37.50% |      340902     12.54%     50.04% |      339330     12.48%     62.52% |      339752     12.50%     75.02% |      338773     12.46%     87.49% |      340181     12.51%    100.00% (Unspecified)
system.caches.L1Cache_Controller.S.L1_Replacement::total      2718355                       (Unspecified)
system.caches.L1Cache_Controller.E.Load  |     1627073     12.47%     12.47% |     1622221     12.44%     24.91% |     1620346     12.42%     37.33% |     1626329     12.47%     49.80% |     1685796     12.92%     62.73% |     1631336     12.51%     75.23% |     1611820     12.36%     87.59% |     1618905     12.41%    100.00% (Unspecified)
system.caches.L1Cache_Controller.E.Load::total     13043826                       (Unspecified)
system.caches.L1Cache_Controller.E.Store |      226841     12.51%     12.51% |      226661     12.50%     25.01% |      226502     12.49%     37.50% |      227147     12.53%     50.03% |      226036     12.47%     62.49% |      226887     12.51%     75.01% |      226410     12.49%     87.49% |      226766     12.51%    100.00% (Unspecified)
system.caches.L1Cache_Controller.E.Store::total      1813250                       (Unspecified)
system.caches.L1Cache_Controller.E.Inv   |        6373     11.60%     11.60% |        7044     12.82%     24.42% |        6858     12.48%     36.90% |        6780     12.34%     49.24% |        6986     12.71%     61.96% |        6900     12.56%     74.51% |        7015     12.77%     87.28% |        6988     12.72%    100.00% (Unspecified)
system.caches.L1Cache_Controller.E.Inv::total        54944                       (Unspecified)
system.caches.L1Cache_Controller.E.L1_Replacement |      293155     12.41%     12.41% |      294908     12.49%     24.90% |      294851     12.49%     37.39% |      296224     12.54%     49.93% |      295580     12.52%     62.45% |      297168     12.58%     75.03% |      294381     12.47%     87.50% |      295292     12.50%    100.00% (Unspecified)
system.caches.L1Cache_Controller.E.L1_Replacement::total      2361559                       (Unspecified)
system.caches.L1Cache_Controller.E.Fwd_GETX |           0      0.00%      0.00% |           7    100.00%    100.00% |           0      0.00%    100.00% |           0      0.00%    100.00% |           0      0.00%    100.00% |           0      0.00%    100.00% |           0      0.00%    100.00% |           0      0.00%    100.00% (Unspecified)
system.caches.L1Cache_Controller.E.Fwd_GETX::total            7                       (Unspecified)
system.caches.L1Cache_Controller.E.Fwd_GETS |       52586     12.57%     12.57% |       52450     12.54%     25.11% |       52112     12.46%     37.56% |       52287     12.50%     50.06% |       52155     12.47%     62.53% |       52116     12.46%     74.99% |       52103     12.45%     87.44% |       52548     12.56%    100.00% (Unspecified)
system.caches.L1Cache_Controller.E.Fwd_GETS::total       418357                       (Unspecified)
system.caches.L1Cache_Controller.M.Load  |     1401323     12.61%     12.61% |     1386167     12.47%     25.08% |     1386438     12.48%     37.56% |     1392417     12.53%     50.09% |     1381743     12.43%     62.53% |     1385717     12.47%     75.00% |     1387331     12.48%     87.48% |     1391302     12.52%    100.00% (Unspecified)
system.caches.L1Cache_Controller.M.Load::total     11112438                       (Unspecified)
system.caches.L1Cache_Controller.M.Store |      996483     12.62%     12.62% |      983403     12.46%     25.08% |      984045     12.47%     37.55% |      987650     12.51%     50.06% |      988068     12.52%     62.58% |      985250     12.48%     75.06% |      983039     12.45%     87.51% |      985615     12.49%    100.00% (Unspecified)
system.caches.L1Cache_Controller.M.Store::total      7893553                       (Unspecified)
system.caches.L1Cache_Controller.M.Inv   |        5141     12.06%     12.06% |        5238     12.29%     24.36% |        5419     12.72%     37.07% |        5300     12.44%     49.51% |        5286     12.40%     61.91% |        5344     12.54%     74.45% |        5505     12.92%     87.37% |        5381     12.63%    100.00% (Unspecified)
system.caches.L1Cache_Controller.M.Inv::total        42614                       (Unspecified)
system.caches.L1Cache_Controller.M.L1_Replacement |      229646     12.80%     12.80% |      223168     12.44%     25.24% |      223385     12.45%     37.70% |      223901     12.48%     50.18% |      223729     12.47%     62.65% |      223799     12.48%     75.13% |      222687     12.41%     87.54% |      223455     12.46%    100.00% (Unspecified)
system.caches.L1Cache_Controller.M.L1_Replacement::total      1793770                       (Unspecified)
system.caches.L1Cache_Controller.M.Fwd_GETX |          23     11.79%     11.79% |          27     13.85%     25.64% |          25     12.82%     38.46% |          21     10.77%     49.23% |          23     11.79%     61.03% |          30     15.38%     76.41% |          21     10.77%     87.18% |          25     12.82%    100.00% (Unspecified)
system.caches.L1Cache_Controller.M.Fwd_GETX::total          195                       (Unspecified)
system.caches.L1Cache_Controller.M.Fwd_GETS |       19136     12.94%     12.94% |       18367     12.42%     25.36% |       18377     12.43%     37.79% |       18530     12.53%     50.32% |       18374     12.43%     62.75% |       18105     12.24%     74.99% |       18461     12.49%     87.48% |       18514     12.52%    100.00% (Unspecified)
system.caches.L1Cache_Controller.M.Fwd_GETS::total       147864                       (Unspecified)
system.caches.L1Cache_Controller.IS.Inv  |           0      0.00%      0.00% |           0      0.00%      0.00% |           8     42.11%     42.11% |           2     10.53%     52.63% |           2     10.53%     63.16% |           3     15.79%     78.95% |           2     10.53%     89.47% |           2     10.53%    100.00% (Unspecified)
system.caches.L1Cache_Controller.IS.Inv::total           19                       (Unspecified)
system.caches.L1Cache_Controller.IS.L1_Replacement |           0      0.00%      0.00% |           0      0.00%      0.00% |           1     50.00%     50.00% |           0      0.00%     50.00% |           1     50.00%    100.00% |           0      0.00%    100.00% |           0      0.00%    100.00% |           0      0.00%    100.00% (Unspecified)
system.caches.L1Cache_Controller.IS.L1_Replacement::total            2                       (Unspecified)
system.caches.L1Cache_Controller.IS.Data_Exclusive |      581079     12.50%     12.50% |      580939     12.49%     24.99% |      580259     12.48%     37.47% |      582306     12.52%     49.99% |      580743     12.49%     62.48% |      582942     12.54%     75.02% |      579957     12.47%     87.49% |      581603     12.51%    100.00% (Unspecified)
system.caches.L1Cache_Controller.IS.Data_Exclusive::total      4649828                       (Unspecified)
system.caches.L1Cache_Controller.IS.DataS_fromL1 |       71118     12.56%     12.56% |       71183     12.57%     25.13% |       71034     12.55%     37.68% |       71005     12.54%     50.22% |       70378     12.43%     62.65% |       70537     12.46%     75.10% |       70306     12.42%     87.52% |       70663     12.48%    100.00% (Unspecified)
system.caches.L1Cache_Controller.IS.DataS_fromL1::total       566224                       (Unspecified)
system.caches.L1Cache_Controller.IS.Data_all_Acks |      248548     12.59%     12.59% |      246236     12.47%     25.07% |      246561     12.49%     37.56% |      247410     12.53%     50.09% |      246270     12.48%     62.57% |      246774     12.50%     75.07% |      245532     12.44%     87.50% |      246655     12.50%    100.00% (Unspecified)
system.caches.L1Cache_Controller.IS.Data_all_Acks::total      1973986                       (Unspecified)
system.caches.L1Cache_Controller.IM.Data |         129    100.00%    100.00% |           0      0.00%    100.00% |           0      0.00%    100.00% |           0      0.00%    100.00% |           0      0.00%    100.00% |           0      0.00%    100.00% |           0      0.00%    100.00% |           0      0.00%    100.00% (Unspecified)
system.caches.L1Cache_Controller.IM.Data::total          129                       (Unspecified)
system.caches.L1Cache_Controller.IM.Data_all_Acks |        2539     15.58%     15.58% |        1836     11.27%     26.85% |        1849     11.35%     38.19% |        1819     11.16%     49.36% |        2841     17.43%     66.79% |        1798     11.03%     77.82% |        1813     11.13%     88.95% |        1801     11.05%    100.00% (Unspecified)
system.caches.L1Cache_Controller.IM.Data_all_Acks::total        16296                       (Unspecified)
system.caches.L1Cache_Controller.SM.Inv  |           3      8.82%      8.82% |           5     14.71%     23.53% |           5     14.71%     38.24% |           5     14.71%     52.94% |           3      8.82%     61.76% |           1      2.94%     64.71% |           5     14.71%     79.41% |           7     20.59%    100.00% (Unspecified)
system.caches.L1Cache_Controller.SM.Inv::total           34                       (Unspecified)
system.caches.L1Cache_Controller.SM.Ack  |       21178     13.23%     13.23% |       19514     12.19%     25.42% |       20081     12.55%     37.97% |       20130     12.58%     50.54% |       19565     12.22%     62.77% |       19862     12.41%     75.17% |       19759     12.34%     87.52% |       19978     12.48%    100.00% (Unspecified)
system.caches.L1Cache_Controller.SM.Ack::total       160067                       (Unspecified)
system.caches.L1Cache_Controller.SM.Ack_all |       19054     12.75%     12.75% |       18355     12.28%     25.03% |       18818     12.59%     37.62% |       18826     12.60%     50.22% |       18460     12.35%     62.57% |       18678     12.50%     75.07% |       18439     12.34%     87.41% |       18817     12.59%    100.00% (Unspecified)
system.caches.L1Cache_Controller.SM.Ack_all::total       149447                       (Unspecified)
system.caches.L1Cache_Controller.IS_I.Data_Exclusive |           0      0.00%      0.00% |           0      0.00%      0.00% |           0      0.00%      0.00% |           0      0.00%      0.00% |           0      0.00%      0.00% |           1    100.00%    100.00% |           0      0.00%    100.00% |           0      0.00%    100.00% (Unspecified)
system.caches.L1Cache_Controller.IS_I.Data_Exclusive::total            1                       (Unspecified)
system.caches.L1Cache_Controller.IS_I.Data_all_Acks |           0      0.00%      0.00% |           0      0.00%      0.00% |           8     44.44%     44.44% |           2     11.11%     55.56% |           2     11.11%     66.67% |           2     11.11%     77.78% |           2     11.11%     88.89% |           2     11.11%    100.00% (Unspecified)
system.caches.L1Cache_Controller.IS_I.Data_all_Acks::total           18                       (Unspecified)
system.caches.L1Cache_Controller.M_I.Load |           0      0.00%      0.00% |           0      0.00%      0.00% |           1     25.00%     25.00% |           0      0.00%     25.00% |           1     25.00%     50.00% |           0      0.00%     50.00% |           1     25.00%     75.00% |           1     25.00%    100.00% (Unspecified)
system.caches.L1Cache_Controller.M_I.Load::total            4                       (Unspecified)
system.caches.L1Cache_Controller.M_I.Inv |           0      0.00%      0.00% |           0      0.00%      0.00% |           3     75.00%     75.00% |           1     25.00%    100.00% |           0      0.00%    100.00% |           0      0.00%    100.00% |           0      0.00%    100.00% |           0      0.00%    100.00% (Unspecified)
system.caches.L1Cache_Controller.M_I.Inv::total            4                       (Unspecified)
system.caches.L1Cache_Controller.M_I.Fwd_GETS |           0      0.00%      0.00% |           0      0.00%      0.00% |           0      0.00%      0.00% |           0      0.00%      0.00% |           1     33.33%     33.33% |           0      0.00%     33.33% |           0      0.00%     33.33% |           2     66.67%    100.00% (Unspecified)
system.caches.L1Cache_Controller.M_I.Fwd_GETS::total            3                       (Unspecified)
system.caches.L1Cache_Controller.M_I.WB_Ack |      522801     12.58%     12.58% |      518076     12.47%     25.05% |      518233     12.47%     37.52% |      520124     12.52%     50.04% |      519308     12.50%     62.54% |      520967     12.54%     75.07% |      517068     12.44%     87.52% |      518744     12.48%    100.00% (Unspecified)
system.caches.L1Cache_Controller.M_I.WB_Ack::total      4155321                       (Unspecified)
system.caches.L1Cache_Controller.SINK_WB_ACK.WB_Ack |           0      0.00%      0.00% |           0      0.00%      0.00% |           3     42.86%     42.86% |           1     14.29%     57.14% |           1     14.29%     71.43% |           0      0.00%     71.43% |           0      0.00%     71.43% |           2     28.57%    100.00% (Unspecified)
system.caches.L1Cache_Controller.SINK_WB_ACK.WB_Ack::total            7                       (Unspecified)
system.caches.Directory_Controller.Fetch |        6372      0.17%      0.17% |     3782303     99.83%    100.00% (Unspecified)
system.caches.Directory_Controller.Fetch::total      3788675                       (Unspecified)
system.caches.Directory_Controller.Data  |         190      0.01%      0.01% |     1597664     99.99%    100.00% (Unspecified)
system.caches.Directory_Controller.Data::total      1597854                       (Unspecified)
system.caches.Directory_Controller.Memory_Data |        6372      0.17%      0.17% |     3782296     99.83%    100.00% (Unspecified)
system.caches.Directory_Controller.Memory_Data::total      3788668                       (Unspecified)
system.caches.Directory_Controller.Memory_Ack |         190      0.01%      0.01% |     1597663     99.99%    100.00% (Unspecified)
system.caches.Directory_Controller.Memory_Ack::total      1597853                       (Unspecified)
system.caches.Directory_Controller.CleanReplacement |        6176      0.28%      0.28% |     2184645     99.72%    100.00% (Unspecified)
system.caches.Directory_Controller.CleanReplacement::total      2190821                       (Unspecified)
system.caches.Directory_Controller.I.Fetch |        6372      0.17%      0.17% |     3782303     99.83%    100.00% (Unspecified)
system.caches.Directory_Controller.I.Fetch::total      3788675                       (Unspecified)
system.caches.Directory_Controller.M.Data |         190      0.01%      0.01% |     1597664     99.99%    100.00% (Unspecified)
system.caches.Directory_Controller.M.Data::total      1597854                       (Unspecified)
system.caches.Directory_Controller.M.CleanReplacement |        6176      0.28%      0.28% |     2184645     99.72%    100.00% (Unspecified)
system.caches.Directory_Controller.M.CleanReplacement::total      2190821                       (Unspecified)
system.caches.Directory_Controller.IM.Memory_Data |        6372      0.17%      0.17% |     3782296     99.83%    100.00% (Unspecified)
system.caches.Directory_Controller.IM.Memory_Data::total      3788668                       (Unspecified)
system.caches.Directory_Controller.MI.Memory_Ack |         190      0.01%      0.01% |     1597663     99.99%    100.00% (Unspecified)
system.caches.Directory_Controller.MI.Memory_Ack::total      1597853                       (Unspecified)
system.caches.L2Cache_Controller.L1_GET_INSTR |        5676     12.29%     12.29% |        6747     14.60%     26.89% |        5645     12.22%     39.11% |        4047      8.76%     47.87% |        5800     12.55%     60.42% |        6248     13.52%     73.94% |        6038     13.07%     87.01% |        6000     12.99%    100.00% (Unspecified)
system.caches.L2Cache_Controller.L1_GET_INSTR::total        46201                       (Unspecified)
system.caches.L2Cache_Controller.L1_GETS |      894559     12.52%     12.52% |      903365     12.64%     25.17% |      895455     12.53%     37.70% |      894117     12.51%     50.21% |      884343     12.38%     62.59% |      888274     12.43%     75.03% |      895752     12.54%     87.56% |      888512     12.44%    100.00% (Unspecified)
system.caches.L2Cache_Controller.L1_GETS::total      7144377                       (Unspecified)
system.caches.L2Cache_Controller.L1_GETX |        2402     14.60%     14.60% |        1907     11.59%     26.19% |         685      4.16%     30.36% |        1625      9.88%     40.24% |        2015     12.25%     52.49% |        2932     17.82%     70.31% |        2137     12.99%     83.30% |        2747     16.70%    100.00% (Unspecified)
system.caches.L2Cache_Controller.L1_GETX::total        16450                       (Unspecified)
system.caches.L2Cache_Controller.L1_UPGRADE |       18868     12.63%     12.63% |       17669     11.83%     24.45% |       18605     12.45%     36.91% |       19017     12.73%     49.63% |       18681     12.50%     62.14% |       18910     12.66%     74.79% |       18693     12.51%     87.30% |       18973     12.70%    100.00% (Unspecified)
system.caches.L2Cache_Controller.L1_UPGRADE::total       149416                       (Unspecified)
system.caches.L2Cache_Controller.L1_PUTX |      522139     12.57%     12.57% |      520312     12.52%     25.09% |      517669     12.46%     37.55% |      519566     12.50%     50.05% |      517160     12.45%     62.49% |      521050     12.54%     75.03% |      519208     12.49%     87.53% |      518224     12.47%    100.00% (Unspecified)
system.caches.L2Cache_Controller.L1_PUTX::total      4155328                       (Unspecified)
system.caches.L2Cache_Controller.L1_PUTX_old |           4     50.00%     50.00% |           2     25.00%     75.00% |           0      0.00%     75.00% |           2     25.00%    100.00% |           0      0.00%    100.00% |           0      0.00%    100.00% |           0      0.00%    100.00% |           0      0.00%    100.00% (Unspecified)
system.caches.L2Cache_Controller.L1_PUTX_old::total            8                       (Unspecified)
system.caches.L2Cache_Controller.L2_Replacement |      195413     12.51%     12.51% |      195578     12.52%     25.02% |      195218     12.49%     37.51% |      195239     12.49%     50.01% |      194113     12.42%     62.43% |      196863     12.60%     75.03% |      194689     12.46%     87.49% |      195492     12.51%    100.00% (Unspecified)
system.caches.L2Cache_Controller.L2_Replacement::total      1562605                       (Unspecified)
system.caches.L2Cache_Controller.L2_Replacement_clean |      280121     12.58%     12.58% |      277584     12.47%     25.05% |      278247     12.50%     37.55% |      278711     12.52%     50.07% |      277752     12.48%     62.55% |      278090     12.49%     75.04% |      277861     12.48%     87.52% |      277704     12.48%    100.00% (Unspecified)
system.caches.L2Cache_Controller.L2_Replacement_clean::total      2226070                       (Unspecified)
system.caches.L2Cache_Controller.Mem_Data |      475533     12.55%     12.55% |      473160     12.49%     25.04% |      473465     12.50%     37.54% |      473948     12.51%     50.05% |      471865     12.45%     62.50% |      474953     12.54%     75.04% |      472548     12.47%     87.51% |      473196     12.49%    100.00% (Unspecified)
system.caches.L2Cache_Controller.Mem_Data::total      3788668                       (Unspecified)
system.caches.L2Cache_Controller.Mem_Ack |      475534     12.55%     12.55% |      473162     12.49%     25.04% |      473465     12.50%     37.54% |      473950     12.51%     50.05% |      471865     12.45%     62.50% |      474953     12.54%     75.04% |      472549     12.47%     87.51% |      473196     12.49%    100.00% (Unspecified)
system.caches.L2Cache_Controller.Mem_Ack::total      3788674                       (Unspecified)
system.caches.L2Cache_Controller.WB_Data |       24085     12.64%     12.64% |       22491     11.81%     24.45% |       23590     12.38%     36.84% |       24118     12.66%     49.50% |       23780     12.48%     61.98% |       24025     12.61%     74.59% |       23847     12.52%     87.11% |       24548     12.89%    100.00% (Unspecified)
system.caches.L2Cache_Controller.WB_Data::total       190484                       (Unspecified)
system.caches.L2Cache_Controller.WB_Data_clean |       52592     12.57%     12.57% |       51784     12.38%     24.95% |       52295     12.50%     37.45% |       52668     12.59%     50.04% |       52267     12.49%     62.53% |       52294     12.50%     75.03% |       52382     12.52%     87.55% |       52076     12.45%    100.00% (Unspecified)
system.caches.L2Cache_Controller.WB_Data_clean::total       418358                       (Unspecified)
system.caches.L2Cache_Controller.Ack     |      124469     12.58%     12.58% |      123465     12.47%     25.05% |      124196     12.55%     37.60% |      123871     12.51%     50.11% |      123482     12.48%     62.59% |      123556     12.48%     75.07% |      123108     12.44%     87.51% |      123654     12.49%    100.00% (Unspecified)
system.caches.L2Cache_Controller.Ack::total       989801                       (Unspecified)
system.caches.L2Cache_Controller.Ack_all |       59196     12.67%     12.67% |       57784     12.37%     25.05% |       58211     12.46%     37.51% |       58547     12.54%     50.05% |       58440     12.51%     62.56% |       58189     12.46%     75.02% |       58367     12.50%     87.52% |       58306     12.48%    100.00% (Unspecified)
system.caches.L2Cache_Controller.Ack_all::total       467040                       (Unspecified)
system.caches.L2Cache_Controller.Unblock |       71388     12.61%     12.61% |       69234     12.23%     24.84% |       70722     12.49%     37.33% |       71488     12.63%     49.95% |       70709     12.49%     62.44% |       70953     12.53%     74.97% |       70886     12.52%     87.49% |       70844     12.51%    100.00% (Unspecified)
system.caches.L2Cache_Controller.Unblock::total       566224                       (Unspecified)
system.caches.L2Cache_Controller.Exclusive_Unblock |      605560     12.58%     12.58% |      600745     12.48%     25.05% |      599753     12.45%     37.50% |      602765     12.52%     50.02% |      599826     12.46%     62.48% |      603658     12.54%     75.01% |      601774     12.50%     87.51% |      601491     12.49%    100.00% (Unspecified)
system.caches.L2Cache_Controller.Exclusive_Unblock::total      4815572                       (Unspecified)
system.caches.L2Cache_Controller.NP.L1_GET_INSTR |         844     14.19%     14.19% |         858     14.42%     28.61% |         735     12.36%     40.96% |         598     10.05%     51.02% |         732     12.30%     63.32% |         739     12.42%     75.74% |         637     10.71%     86.45% |         806     13.55%    100.00% (Unspecified)
system.caches.L2Cache_Controller.NP.L1_GET_INSTR::total         5949                       (Unspecified)
system.caches.L2Cache_Controller.NP.L1_GETS |      473528     12.54%     12.54% |      471408     12.49%     25.03% |      472213     12.51%     37.54% |      472620     12.52%     50.06% |      470197     12.46%     62.52% |      472816     12.53%     75.04% |      470878     12.47%     87.52% |      471249     12.48%    100.00% (Unspecified)
system.caches.L2Cache_Controller.NP.L1_GETS::total      3774909                       (Unspecified)
system.caches.L2Cache_Controller.NP.L1_GETX |        1162     14.87%     14.87% |         896     11.46%     26.33% |         517      6.61%     32.94% |         732      9.36%     42.31% |         936     11.97%     54.28% |        1398     17.88%     72.16% |        1035     13.24%     85.40% |        1141     14.60%    100.00% (Unspecified)
system.caches.L2Cache_Controller.NP.L1_GETX::total         7817                       (Unspecified)
system.caches.L2Cache_Controller.NP.L1_PUTX_old |           2     50.00%     50.00% |           1     25.00%     75.00% |           0      0.00%     75.00% |           1     25.00%    100.00% |           0      0.00%    100.00% |           0      0.00%    100.00% |           0      0.00%    100.00% |           0      0.00%    100.00% (Unspecified)
system.caches.L2Cache_Controller.NP.L1_PUTX_old::total            4                       (Unspecified)
system.caches.L2Cache_Controller.SS.L1_GET_INSTR |        4007     11.44%     11.44% |        4940     14.10%     25.54% |        4165     11.89%     37.42% |        2766      7.89%     45.32% |        4535     12.94%     58.26% |        4910     14.01%     72.28% |        4962     14.16%     86.44% |        4752     13.56%    100.00% (Unspecified)
system.caches.L2Cache_Controller.SS.L1_GET_INSTR::total        35037                       (Unspecified)
system.caches.L2Cache_Controller.SS.L1_GETS |      238588     12.39%     12.39% |      252463     13.11%     25.50% |      244061     12.67%     38.17% |      240342     12.48%     50.65% |      234366     12.17%     62.82% |      235108     12.21%     75.03% |      243274     12.63%     87.66% |      237661     12.34%    100.00% (Unspecified)
system.caches.L2Cache_Controller.SS.L1_GETS::total      1925863                       (Unspecified)
system.caches.L2Cache_Controller.SS.L1_GETX |          87     67.44%     67.44% |           0      0.00%     67.44% |           0      0.00%     67.44% |           0      0.00%     67.44% |           0      0.00%     67.44% |           0      0.00%     67.44% |          42     32.56%    100.00% |           0      0.00%    100.00% (Unspecified)
system.caches.L2Cache_Controller.SS.L1_GETX::total          129                       (Unspecified)
system.caches.L2Cache_Controller.SS.L1_UPGRADE |       18864     12.63%     12.63% |       17666     11.83%     24.46% |       18598     12.46%     36.92% |       19014     12.73%     49.65% |       18677     12.51%     62.16% |       18908     12.66%     74.82% |       18622     12.47%     87.30% |       18969     12.70%    100.00% (Unspecified)
system.caches.L2Cache_Controller.SS.L1_UPGRADE::total       149318                       (Unspecified)
system.caches.L2Cache_Controller.SS.L1_PUTX |           0      0.00%      0.00% |           0      0.00%      0.00% |           0      0.00%      0.00% |           2     66.67%     66.67% |           0      0.00%     66.67% |           0      0.00%     66.67% |           0      0.00%     66.67% |           1     33.33%    100.00% (Unspecified)
system.caches.L2Cache_Controller.SS.L1_PUTX::total            3                       (Unspecified)
system.caches.L2Cache_Controller.SS.L2_Replacement |        1042     12.89%     12.89% |        1015     12.56%     25.45% |        1027     12.70%     38.15% |        1033     12.78%     50.93% |        1028     12.72%     63.64% |         951     11.76%     75.41% |        1005     12.43%     87.84% |         983     12.16%    100.00% (Unspecified)
system.caches.L2Cache_Controller.SS.L2_Replacement::total         8084                       (Unspecified)
system.caches.L2Cache_Controller.SS.L2_Replacement_clean |       50929     12.61%     12.61% |       50135     12.41%     25.02% |       50506     12.50%     37.52% |       50687     12.55%     50.06% |       50351     12.46%     62.52% |       50422     12.48%     75.01% |       50597     12.52%     87.53% |       50385     12.47%    100.00% (Unspecified)
system.caches.L2Cache_Controller.SS.L2_Replacement_clean::total       404012                       (Unspecified)
system.caches.L2Cache_Controller.M.L1_GET_INSTR |           0      0.00%      0.00% |           2     20.00%     20.00% |           2     20.00%     40.00% |           0      0.00%     40.00% |           1     10.00%     50.00% |           1     10.00%     60.00% |           2     20.00%     80.00% |           2     20.00%    100.00% (Unspecified)
system.caches.L2Cache_Controller.M.L1_GET_INSTR::total           10                       (Unspecified)
system.caches.L2Cache_Controller.M.L1_GETS |      110876     12.66%     12.66% |      109875     12.55%     25.21% |      108333     12.37%     37.59% |      109568     12.51%     50.10% |      108996     12.45%     62.55% |      109080     12.46%     75.01% |      110202     12.59%     87.60% |      108609     12.40%    100.00% (Unspecified)
system.caches.L2Cache_Controller.M.L1_GETS::total       875539                       (Unspecified)
system.caches.L2Cache_Controller.M.L1_GETX |        1138     13.75%     13.75% |        1004     12.13%     25.88% |         159      1.92%     27.80% |         890     10.75%     38.55% |        1072     12.95%     51.50% |        1530     18.48%     69.99% |        1048     12.66%     82.65% |        1436     17.35%    100.00% (Unspecified)
system.caches.L2Cache_Controller.M.L1_GETX::total         8277                       (Unspecified)
system.caches.L2Cache_Controller.M.L2_Replacement |      193441     12.51%     12.51% |      193662     12.52%     25.02% |      193283     12.49%     37.52% |      193257     12.49%     50.01% |      192152     12.42%     62.43% |      194913     12.60%     75.03% |      192720     12.46%     87.49% |      193466     12.51%    100.00% (Unspecified)
system.caches.L2Cache_Controller.M.L2_Replacement::total      1546894                       (Unspecified)
system.caches.L2Cache_Controller.M.L2_Replacement_clean |      217608     12.56%     12.56% |      216675     12.51%     25.07% |      216808     12.52%     37.59% |      216848     12.52%     50.11% |      215935     12.47%     62.57% |      216485     12.50%     75.07% |      216120     12.48%     87.55% |      215644     12.45%    100.00% (Unspecified)
system.caches.L2Cache_Controller.M.L2_Replacement_clean::total      1732123                       (Unspecified)
system.caches.L2Cache_Controller.MT.L1_GETS |       71388     12.61%     12.61% |       69234     12.23%     24.84% |       70722     12.49%     37.33% |       71488     12.63%     49.95% |       70709     12.49%     62.44% |       70953     12.53%     74.97% |       70886     12.52%     87.49% |       70844     12.51%    100.00% (Unspecified)
system.caches.L2Cache_Controller.MT.L1_GETS::total       566224                       (Unspecified)
system.caches.L2Cache_Controller.MT.L1_GETX |           6      2.97%      2.97% |           3      1.49%      4.46% |           9      4.46%      8.91% |           3      1.49%     10.40% |           5      2.48%     12.87% |           3      1.49%     14.36% |          12      5.94%     20.30% |         161     79.70%    100.00% (Unspecified)
system.caches.L2Cache_Controller.MT.L1_GETX::total          202                       (Unspecified)
system.caches.L2Cache_Controller.MT.L1_PUTX |      522139     12.57%     12.57% |      520312     12.52%     25.09% |      517669     12.46%     37.55% |      519562     12.50%     50.05% |      517160     12.45%     62.49% |      521050     12.54%     75.03% |      519208     12.50%     87.53% |      518222     12.47%    100.00% (Unspecified)
system.caches.L2Cache_Controller.MT.L1_PUTX::total      4155322                       (Unspecified)
system.caches.L2Cache_Controller.MT.L2_Replacement |         930     12.19%     12.19% |         901     11.81%     24.01% |         908     11.91%     35.91% |         949     12.44%     48.35% |         933     12.23%     60.59% |         999     13.10%     73.69% |         964     12.64%     86.32% |        1043     13.68%    100.00% (Unspecified)
system.caches.L2Cache_Controller.MT.L2_Replacement::total         7627                       (Unspecified)
system.caches.L2Cache_Controller.MT.L2_Replacement_clean |       11584     12.88%     12.88% |       10774     11.98%     24.86% |       10933     12.16%     37.02% |       11176     12.43%     49.44% |       11466     12.75%     62.19% |       11183     12.43%     74.63% |       11144     12.39%     87.02% |       11675     12.98%    100.00% (Unspecified)
system.caches.L2Cache_Controller.MT.L2_Replacement_clean::total        89935                       (Unspecified)
system.caches.L2Cache_Controller.M_I.L1_GET_INSTR |          16     18.39%     18.39% |          27     31.03%     49.43% |          21     24.14%     73.56% |          23     26.44%    100.00% |           0      0.00%    100.00% |           0      0.00%    100.00% |           0      0.00%    100.00% |           0      0.00%    100.00% (Unspecified)
system.caches.L2Cache_Controller.M_I.L1_GET_INSTR::total           87                       (Unspecified)
system.caches.L2Cache_Controller.M_I.L1_GETS |          14     11.57%     11.57% |          17     14.05%     25.62% |           2      1.65%     27.27% |           2      1.65%     28.93% |           2      1.65%     30.58% |          19     15.70%     46.28% |          12      9.92%     56.20% |          53     43.80%    100.00% (Unspecified)
system.caches.L2Cache_Controller.M_I.L1_GETS::total          121                       (Unspecified)
system.caches.L2Cache_Controller.M_I.L1_GETX |           9     36.00%     36.00% |           4     16.00%     52.00% |           0      0.00%     52.00% |           0      0.00%     52.00% |           2      8.00%     60.00% |           1      4.00%     64.00% |           0      0.00%     64.00% |           9     36.00%    100.00% (Unspecified)
system.caches.L2Cache_Controller.M_I.L1_GETX::total           25                       (Unspecified)
system.caches.L2Cache_Controller.M_I.Mem_Ack |      475534     12.55%     12.55% |      473162     12.49%     25.04% |      473465     12.50%     37.54% |      473950     12.51%     50.05% |      471865     12.45%     62.50% |      474953     12.54%     75.04% |      472549     12.47%     87.51% |      473196     12.49%    100.00% (Unspecified)
system.caches.L2Cache_Controller.M_I.Mem_Ack::total      3788674                       (Unspecified)
system.caches.L2Cache_Controller.MT_I.WB_Data |         895     12.15%     12.15% |         866     11.75%     23.90% |         879     11.93%     35.83% |         916     12.43%     48.26% |         901     12.23%     60.48% |         969     13.15%     73.63% |         932     12.65%     86.28% |        1011     13.72%    100.00% (Unspecified)
system.caches.L2Cache_Controller.MT_I.WB_Data::total         7369                       (Unspecified)
system.caches.L2Cache_Controller.MT_I.Ack_all |          35     13.57%     13.57% |          35     13.57%     27.13% |          29     11.24%     38.37% |          33     12.79%     51.16% |          32     12.40%     63.57% |          30     11.63%     75.19% |          32     12.40%     87.60% |          32     12.40%    100.00% (Unspecified)
system.caches.L2Cache_Controller.MT_I.Ack_all::total          258                       (Unspecified)
system.caches.L2Cache_Controller.MCT_I.L1_PUTX_old |           2     50.00%     50.00% |           1     25.00%     75.00% |           0      0.00%     75.00% |           1     25.00%    100.00% |           0      0.00%    100.00% |           0      0.00%    100.00% |           0      0.00%    100.00% |           0      0.00%    100.00% (Unspecified)
system.caches.L2Cache_Controller.MCT_I.L1_PUTX_old::total            4                       (Unspecified)
system.caches.L2Cache_Controller.MCT_I.WB_Data |        4394     12.47%     12.47% |        4175     11.84%     24.31% |        4284     12.15%     36.46% |        4382     12.43%     48.90% |        4437     12.59%     61.48% |        4397     12.47%     73.96% |        4411     12.51%     86.47% |        4769     13.53%    100.00% (Unspecified)
system.caches.L2Cache_Controller.MCT_I.WB_Data::total        35249                       (Unspecified)
system.caches.L2Cache_Controller.MCT_I.Ack_all |        7190     13.15%     13.15% |        6599     12.07%     25.21% |        6649     12.16%     37.37% |        6794     12.42%     49.80% |        7029     12.85%     62.65% |        6786     12.41%     75.06% |        6733     12.31%     87.37% |        6906     12.63%    100.00% (Unspecified)
system.caches.L2Cache_Controller.MCT_I.Ack_all::total        54686                       (Unspecified)
system.caches.L2Cache_Controller.I_I.L1_GETS |           0      0.00%      0.00% |           0      0.00%      0.00% |           0      0.00%      0.00% |           2     66.67%     66.67% |           0      0.00%     66.67% |           0      0.00%     66.67% |           1     33.33%    100.00% |           0      0.00%    100.00% (Unspecified)
system.caches.L2Cache_Controller.I_I.L1_GETS::total            3                       (Unspecified)
system.caches.L2Cache_Controller.I_I.Ack |      122102     12.57%     12.57% |      121140     12.47%     25.05% |      121766     12.54%     37.59% |      121513     12.51%     50.10% |      121081     12.47%     62.57% |      121336     12.49%     75.06% |      120755     12.43%     87.49% |      121459     12.51%    100.00% (Unspecified)
system.caches.L2Cache_Controller.I_I.Ack::total       971152                       (Unspecified)
system.caches.L2Cache_Controller.I_I.Ack_all |       50929     12.61%     12.61% |       50135     12.41%     25.02% |       50506     12.50%     37.52% |       50687     12.55%     50.06% |       50351     12.46%     62.52% |       50422     12.48%     75.01% |       50597     12.52%     87.53% |       50385     12.47%    100.00% (Unspecified)
system.caches.L2Cache_Controller.I_I.Ack_all::total       404012                       (Unspecified)
system.caches.L2Cache_Controller.S_I.Ack |        2367     12.69%     12.69% |        2325     12.47%     25.16% |        2430     13.03%     38.19% |        2358     12.64%     50.83% |        2401     12.87%     63.71% |        2220     11.90%     75.61% |        2353     12.62%     88.23% |        2195     11.77%    100.00% (Unspecified)
system.caches.L2Cache_Controller.S_I.Ack::total        18649                       (Unspecified)
system.caches.L2Cache_Controller.S_I.Ack_all |        1042     12.89%     12.89% |        1015     12.56%     25.45% |        1027     12.70%     38.15% |        1033     12.78%     50.93% |        1028     12.72%     63.64% |         951     11.76%     75.41% |        1005     12.43%     87.84% |         983     12.16%    100.00% (Unspecified)
system.caches.L2Cache_Controller.S_I.Ack_all::total         8084                       (Unspecified)
system.caches.L2Cache_Controller.ISS.L1_GETS |         100     16.37%     16.37% |         105     17.18%     33.55% |          76     12.44%     45.99% |          60      9.82%     55.81% |          57      9.33%     65.14% |          76     12.44%     77.58% |          63     10.31%     87.89% |          74     12.11%    100.00% (Unspecified)
system.caches.L2Cache_Controller.ISS.L1_GETS::total          611                       (Unspecified)
system.caches.L2Cache_Controller.ISS.Mem_Data |      473427     12.54%     12.54% |      471301     12.49%     25.03% |      472137     12.51%     37.54% |      472558     12.52%     50.06% |      470140     12.46%     62.52% |      472740     12.53%     75.04% |      470813     12.47%     87.52% |      471175     12.48%    100.00% (Unspecified)
system.caches.L2Cache_Controller.ISS.Mem_Data::total      3774291                       (Unspecified)
system.caches.L2Cache_Controller.IS.L1_GET_INSTR |         809     15.81%     15.81% |         920     17.98%     33.78% |         722     14.11%     47.89% |         660     12.90%     60.79% |         532     10.39%     71.18% |         598     11.68%     82.86% |         437      8.54%     91.40% |         440      8.60%    100.00% (Unspecified)
system.caches.L2Cache_Controller.IS.L1_GET_INSTR::total         5118                       (Unspecified)
system.caches.L2Cache_Controller.IS.L1_GETS |          55      6.83%      6.83% |         253     31.43%     38.26% |          46      5.71%     43.98% |          32      3.98%     47.95% |          16      1.99%     49.94% |         213     26.46%     76.40% |         168     20.87%     97.27% |          22      2.73%    100.00% (Unspecified)
system.caches.L2Cache_Controller.IS.L1_GETS::total          805                       (Unspecified)
system.caches.L2Cache_Controller.IS.Mem_Data |         944     14.39%     14.39% |         963     14.68%     29.07% |         811     12.36%     41.43% |         658     10.03%     51.46% |         789     12.03%     63.49% |         815     12.42%     75.91% |         700     10.67%     86.59% |         880     13.41%    100.00% (Unspecified)
system.caches.L2Cache_Controller.IS.Mem_Data::total         6560                       (Unspecified)
system.caches.L2Cache_Controller.IM.Mem_Data |        1162     14.87%     14.87% |         896     11.46%     26.33% |         517      6.61%     32.94% |         732      9.36%     42.31% |         936     11.97%     54.28% |        1398     17.88%     72.16% |        1035     13.24%     85.40% |        1141     14.60%    100.00% (Unspecified)
system.caches.L2Cache_Controller.IM.Mem_Data::total         7817                       (Unspecified)
system.caches.L2Cache_Controller.SS_MB.L1_GETS |           0      0.00%      0.00% |           0      0.00%      0.00% |           0      0.00%      0.00% |           0      0.00%      0.00% |           0      0.00%      0.00% |           0      0.00%      0.00% |         221    100.00%    100.00% |           0      0.00%    100.00% (Unspecified)
system.caches.L2Cache_Controller.SS_MB.L1_GETS::total          221                       (Unspecified)
system.caches.L2Cache_Controller.SS_MB.L1_UPGRADE |           4     11.76%     11.76% |           3      8.82%     20.59% |           7     20.59%     41.18% |           3      8.82%     50.00% |           4     11.76%     61.76% |           2      5.88%     67.65% |           7     20.59%     88.24% |           4     11.76%    100.00% (Unspecified)
system.caches.L2Cache_Controller.SS_MB.L1_UPGRADE::total           34                       (Unspecified)
system.caches.L2Cache_Controller.SS_MB.Exclusive_Unblock |       18951     12.68%     12.68% |       17666     11.82%     24.50% |       18598     12.44%     36.95% |       19014     12.72%     49.67% |       18677     12.50%     62.17% |       18908     12.65%     74.82% |       18664     12.49%     87.31% |       18969     12.69%    100.00% (Unspecified)
system.caches.L2Cache_Controller.SS_MB.Exclusive_Unblock::total       149447                       (Unspecified)
system.caches.L2Cache_Controller.MT_MB.L1_GETS |           0      0.00%      0.00% |           2     28.57%     28.57% |           1     14.29%     42.86% |           2     28.57%     71.43% |           0      0.00%     71.43% |           2     28.57%    100.00% |           0      0.00%    100.00% |           0      0.00%    100.00% (Unspecified)
system.caches.L2Cache_Controller.MT_MB.L1_GETS::total            7                       (Unspecified)
system.caches.L2Cache_Controller.MT_MB.Exclusive_Unblock |      586609     12.57%     12.57% |      583079     12.50%     25.07% |      581155     12.45%     37.52% |      583751     12.51%     50.03% |      581149     12.45%     62.49% |      584750     12.53%     75.02% |      583110     12.50%     87.52% |      582522     12.48%    100.00% (Unspecified)
system.caches.L2Cache_Controller.MT_MB.Exclusive_Unblock::total      4666125                       (Unspecified)
system.caches.L2Cache_Controller.MT_IIB.L1_GETS |          10     13.89%     13.89% |           7      9.72%     23.61% |           1      1.39%     25.00% |           1      1.39%     26.39% |           0      0.00%     26.39% |           6      8.33%     34.72% |          47     65.28%    100.00% |           0      0.00%    100.00% (Unspecified)
system.caches.L2Cache_Controller.MT_IIB.L1_GETS::total           72                       (Unspecified)
system.caches.L2Cache_Controller.MT_IIB.L1_PUTX |           0      0.00%      0.00% |           0      0.00%      0.00% |           0      0.00%      0.00% |           2     66.67%     66.67% |           0      0.00%     66.67% |           0      0.00%     66.67% |           0      0.00%     66.67% |           1     33.33%    100.00% (Unspecified)
system.caches.L2Cache_Controller.MT_IIB.L1_PUTX::total            3                       (Unspecified)
system.caches.L2Cache_Controller.MT_IIB.WB_Data |       18795     12.71%     12.71% |       17450     11.80%     24.51% |       18427     12.46%     36.98% |       18820     12.73%     49.70% |       18441     12.47%     62.18% |       18657     12.62%     74.79% |       18503     12.51%     87.31% |       18768     12.69%    100.00% (Unspecified)
system.caches.L2Cache_Controller.MT_IIB.WB_Data::total       147861                       (Unspecified)
system.caches.L2Cache_Controller.MT_IIB.WB_Data_clean |       52589     12.57%     12.57% |       51780     12.38%     24.95% |       52292     12.50%     37.45% |       52665     12.59%     50.04% |       52266     12.49%     62.53% |       52290     12.50%     75.03% |       52380     12.52%     87.55% |       52076     12.45%    100.00% (Unspecified)
system.caches.L2Cache_Controller.MT_IIB.WB_Data_clean::total       418338                       (Unspecified)
system.caches.L2Cache_Controller.MT_IIB.Unblock |           4     16.00%     16.00% |           4     16.00%     32.00% |           3     12.00%     44.00% |           3     12.00%     56.00% |           2      8.00%     64.00% |           6     24.00%     88.00% |           3     12.00%    100.00% |           0      0.00%    100.00% (Unspecified)
system.caches.L2Cache_Controller.MT_IIB.Unblock::total           25                       (Unspecified)
system.caches.L2Cache_Controller.MT_IB.WB_Data |           1     20.00%     20.00% |           0      0.00%     20.00% |           0      0.00%     20.00% |           0      0.00%     20.00% |           1     20.00%     40.00% |           2     40.00%     80.00% |           1     20.00%    100.00% |           0      0.00%    100.00% (Unspecified)
system.caches.L2Cache_Controller.MT_IB.WB_Data::total            5                       (Unspecified)
system.caches.L2Cache_Controller.MT_IB.WB_Data_clean |           3     15.00%     15.00% |           4     20.00%     35.00% |           3     15.00%     50.00% |           3     15.00%     65.00% |           1      5.00%     70.00% |           4     20.00%     90.00% |           2     10.00%    100.00% |           0      0.00%    100.00% (Unspecified)
system.caches.L2Cache_Controller.MT_IB.WB_Data_clean::total           20                       (Unspecified)
system.caches.L2Cache_Controller.MT_SB.L1_GETS |           0      0.00%      0.00% |           1     50.00%     50.00% |           0      0.00%     50.00% |           0      0.00%     50.00% |           0      0.00%     50.00% |           1     50.00%    100.00% |           0      0.00%    100.00% |           0      0.00%    100.00% (Unspecified)
system.caches.L2Cache_Controller.MT_SB.L1_GETS::total            2                       (Unspecified)
system.caches.L2Cache_Controller.MT_SB.L1_UPGRADE |           0      0.00%      0.00% |           0      0.00%      0.00% |           0      0.00%      0.00% |           0      0.00%      0.00% |           0      0.00%      0.00% |           0      0.00%      0.00% |          64    100.00%    100.00% |           0      0.00%    100.00% (Unspecified)
system.caches.L2Cache_Controller.MT_SB.L1_UPGRADE::total           64                       (Unspecified)
system.caches.L2Cache_Controller.MT_SB.Unblock |       71384     12.61%     12.61% |       69230     12.23%     24.83% |       70719     12.49%     37.32% |       71485     12.63%     49.95% |       70707     12.49%     62.44% |       70947     12.53%     74.97% |       70883     12.52%     87.49% |       70844     12.51%    100.00% (Unspecified)
system.caches.L2Cache_Controller.MT_SB.Unblock::total       566199                       (Unspecified)
system.caches.RequestType.LD.latency_hist_seqr::bucket_size          512                       (Unspecified)
system.caches.RequestType.LD.latency_hist_seqr::max_bucket         5119                       (Unspecified)
system.caches.RequestType.LD.latency_hist_seqr::samples     65969779                       (Unspecified)
system.caches.RequestType.LD.latency_hist_seqr::mean    50.420506                       (Unspecified)
system.caches.RequestType.LD.latency_hist_seqr::gmean     1.692799                       (Unspecified)
system.caches.RequestType.LD.latency_hist_seqr::stdev   219.877639                       (Unspecified)
system.caches.RequestType.LD.latency_hist_seqr |    62679874     95.01%     95.01% |     2285709      3.46%     98.48% |      780528      1.18%     99.66% |      139915      0.21%     99.87% |       56772      0.09%     99.96% |       25715      0.04%    100.00% |        1241      0.00%    100.00% |          22      0.00%    100.00% |           3      0.00%    100.00% |           0      0.00%    100.00% (Unspecified)
system.caches.RequestType.LD.latency_hist_seqr::total     65969779                       (Unspecified)
system.caches.RequestType.LD.hit_latency_hist_seqr::bucket_size            1                       (Unspecified)
system.caches.RequestType.LD.hit_latency_hist_seqr::max_bucket            9                       (Unspecified)
system.caches.RequestType.LD.hit_latency_hist_seqr::samples     58825836                       (Unspecified)
system.caches.RequestType.LD.hit_latency_hist_seqr::mean     1.006566                       (Unspecified)
system.caches.RequestType.LD.hit_latency_hist_seqr::gmean     1.004543                       (Unspecified)
system.caches.RequestType.LD.hit_latency_hist_seqr::stdev     0.081556                       (Unspecified)
system.caches.RequestType.LD.hit_latency_hist_seqr |           0      0.00%      0.00% |    58443352     99.35%     99.35% |      378710      0.64%     99.99% |        3774      0.01%    100.00% |           0      0.00%    100.00% |           0      0.00%    100.00% |           0      0.00%    100.00% |           0      0.00%    100.00% |           0      0.00%    100.00% |           0      0.00%    100.00% (Unspecified)
system.caches.RequestType.LD.hit_latency_hist_seqr::total     58825836                       (Unspecified)
system.caches.RequestType.LD.miss_latency_hist_seqr::bucket_size          512                       (Unspecified)
system.caches.RequestType.LD.miss_latency_hist_seqr::max_bucket         5119                       (Unspecified)
system.caches.RequestType.LD.miss_latency_hist_seqr::samples      7143943                       (Unspecified)
system.caches.RequestType.LD.miss_latency_hist_seqr::mean   457.312935                       (Unspecified)
system.caches.RequestType.LD.miss_latency_hist_seqr::gmean   124.398855                       (Unspecified)
system.caches.RequestType.LD.miss_latency_hist_seqr::stdev   510.664878                       (Unspecified)
system.caches.RequestType.LD.miss_latency_hist_seqr |     3854038     53.95%     53.95% |     2285709     32.00%     85.94% |      780528     10.93%     96.87% |      139915      1.96%     98.83% |       56772      0.79%     99.62% |       25715      0.36%     99.98% |        1241      0.02%    100.00% |          22      0.00%    100.00% |           3      0.00%    100.00% |           0      0.00%    100.00% (Unspecified)
system.caches.RequestType.LD.miss_latency_hist_seqr::total      7143943                       (Unspecified)
system.caches.RequestType.ST.latency_hist_seqr::bucket_size          512                       (Unspecified)
system.caches.RequestType.ST.latency_hist_seqr::max_bucket         5119                       (Unspecified)
system.caches.RequestType.ST.latency_hist_seqr::samples      2128851                       (Unspecified)
system.caches.RequestType.ST.latency_hist_seqr::mean     3.356903                       (Unspecified)
system.caches.RequestType.ST.latency_hist_seqr::gmean     1.025308                       (Unspecified)
system.caches.RequestType.ST.latency_hist_seqr::stdev    49.727829                       (Unspecified)
system.caches.RequestType.ST.latency_hist_seqr |     2123911     99.77%     99.77% |        3334      0.16%     99.92% |        1237      0.06%     99.98% |         226      0.01%     99.99% |          93      0.00%    100.00% |          45      0.00%    100.00% |           5      0.00%    100.00% |           0      0.00%    100.00% |           0      0.00%    100.00% |           0      0.00%    100.00% (Unspecified)
system.caches.RequestType.ST.latency_hist_seqr::total      2128851                       (Unspecified)
system.caches.RequestType.ST.hit_latency_hist_seqr::bucket_size          512                       (Unspecified)
system.caches.RequestType.ST.hit_latency_hist_seqr::max_bucket         5119                       (Unspecified)
system.caches.RequestType.ST.hit_latency_hist_seqr::samples      2118562                       (Unspecified)
system.caches.RequestType.ST.hit_latency_hist_seqr::mean     1.041176                       (Unspecified)
system.caches.RequestType.ST.hit_latency_hist_seqr::gmean     1.001309                       (Unspecified)
system.caches.RequestType.ST.hit_latency_hist_seqr::stdev     6.541415                       (Unspecified)
system.caches.RequestType.ST.hit_latency_hist_seqr |     2118482    100.00%    100.00% |          54      0.00%    100.00% |          22      0.00%    100.00% |           2      0.00%    100.00% |           0      0.00%    100.00% |           2      0.00%    100.00% |           0      0.00%    100.00% |           0      0.00%    100.00% |           0      0.00%    100.00% |           0      0.00%    100.00% (Unspecified)
system.caches.RequestType.ST.hit_latency_hist_seqr::total      2118562                       (Unspecified)
system.caches.RequestType.ST.miss_latency_hist_seqr::bucket_size          512                       (Unspecified)
system.caches.RequestType.ST.miss_latency_hist_seqr::max_bucket         5119                       (Unspecified)
system.caches.RequestType.ST.miss_latency_hist_seqr::samples        10289                       (Unspecified)
system.caches.RequestType.ST.miss_latency_hist_seqr::mean   480.177957                       (Unspecified)
system.caches.RequestType.ST.miss_latency_hist_seqr::gmean   134.557143                       (Unspecified)
system.caches.RequestType.ST.miss_latency_hist_seqr::stdev   523.832987                       (Unspecified)
system.caches.RequestType.ST.miss_latency_hist_seqr |        5429     52.77%     52.77% |        3280     31.88%     84.64% |        1215     11.81%     96.45% |         224      2.18%     98.63% |          93      0.90%     99.53% |          43      0.42%     99.95% |           5      0.05%    100.00% |           0      0.00%    100.00% |           0      0.00%    100.00% |           0      0.00%    100.00% (Unspecified)
system.caches.RequestType.ST.miss_latency_hist_seqr::total        10289                       (Unspecified)
system.caches.RequestType.IFETCH.latency_hist_seqr::bucket_size          512                       (Unspecified)
system.caches.RequestType.IFETCH.latency_hist_seqr::max_bucket         5119                       (Unspecified)
system.caches.RequestType.IFETCH.latency_hist_seqr::samples     28843575                       (Unspecified)
system.caches.RequestType.IFETCH.latency_hist_seqr::mean     1.139935                       (Unspecified)
system.caches.RequestType.IFETCH.latency_hist_seqr::gmean     1.005332                       (Unspecified)
system.caches.RequestType.IFETCH.latency_hist_seqr::stdev     8.116231                       (Unspecified)
system.caches.RequestType.IFETCH.latency_hist_seqr |    28842509    100.00%    100.00% |         712      0.00%    100.00% |         246      0.00%    100.00% |          80      0.00%    100.00% |          14      0.00%    100.00% |          13      0.00%    100.00% |           1      0.00%    100.00% |           0      0.00%    100.00% |           0      0.00%    100.00% |           0      0.00%    100.00% (Unspecified)
system.caches.RequestType.IFETCH.latency_hist_seqr::total     28843575                       (Unspecified)
system.caches.RequestType.IFETCH.hit_latency_hist_seqr::bucket_size            1                       (Unspecified)
system.caches.RequestType.IFETCH.hit_latency_hist_seqr::max_bucket            9                       (Unspecified)
system.caches.RequestType.IFETCH.hit_latency_hist_seqr::samples     28797461                       (Unspecified)
system.caches.RequestType.IFETCH.hit_latency_hist_seqr::mean     1.000013                       (Unspecified)
system.caches.RequestType.IFETCH.hit_latency_hist_seqr::gmean     1.000009                       (Unspecified)
system.caches.RequestType.IFETCH.hit_latency_hist_seqr::stdev     0.003642                       (Unspecified)
system.caches.RequestType.IFETCH.hit_latency_hist_seqr |           0      0.00%      0.00% |    28797079    100.00%    100.00% |         382      0.00%    100.00% |           0      0.00%    100.00% |           0      0.00%    100.00% |           0      0.00%    100.00% |           0      0.00%    100.00% |           0      0.00%    100.00% |           0      0.00%    100.00% |           0      0.00%    100.00% (Unspecified)
system.caches.RequestType.IFETCH.hit_latency_hist_seqr::total     28797461                       (Unspecified)
system.caches.RequestType.IFETCH.miss_latency_hist_seqr::bucket_size          512                       (Unspecified)
system.caches.RequestType.IFETCH.miss_latency_hist_seqr::max_bucket         5119                       (Unspecified)
[...]
system.o3Cpu7.iew.squashCycles                 585236                       # Number of cycles IEW is squashing (Cycle)
system.o3Cpu7.iew.blockCycles               213995458                       # Number of cycles IEW is blocking (Cycle)
system.o3Cpu7.iew.unblockCycles               3606665                       # Number of cycles IEW is unblocking (Cycle)
system.o3Cpu7.iew.dispatchedInsts            88699673                       # Number of instructions dispatched to IQ (Count)
system.o3Cpu7.iew.dispSquashedInsts              1367                       # Number of squashed instructions skipped by dispatch (Count)
system.o3Cpu7.iew.dispLoadInsts              17782685                       # Number of dispatched load instructions (Count)
system.o3Cpu7.iew.dispStoreInsts              1920488                       # Number of dispatched store instructions (Count)
system.o3Cpu7.iew.dispNonSpecInsts            1364639                       # Number of dispatched non-speculative instructions (Count)
system.o3Cpu7.iew.iqFullEvents                 542839                       # Number of times the IQ has become full, causing a stall (Count)
system.o3Cpu7.iew.lsqFullEvents               2773023                       # Number of times the LSQ has become full, causing a stall (Count)
system.o3Cpu7.iew.memOrderViolationEvents       239331                       # Number of memory order violations (Count)
system.o3Cpu7.iew.predictedTakenIncorrect       144551                       # Number of branches that were predicted taken incorrectly (Count)
system.o3Cpu7.iew.predictedNotTakenIncorrect       231671                       # Number of branches that were predicted not taken incorrectly (Count)
system.o3Cpu7.iew.branchMispredicts            376222                       # Number of branch mispredicts detected at execute (Count)
system.o3Cpu7.iew.instsToCommit              60374497                       # Cumulative count of insts sent to commit (Count)
system.o3Cpu7.iew.writebackCount             60320681                       # Cumulative count of insts written-back (Count)
system.o3Cpu7.iew.producerInst               48151610                       # Number of instructions producing a value (Count)
system.o3Cpu7.iew.consumerInst               73173099                       # Number of instructions consuming a value (Count)
system.o3Cpu7.iew.wbRate                     0.208114                       # Insts written-back per cycle ((Count/Cycle))
system.o3Cpu7.iew.wbFanout                   0.658051                       # Average fanout of values written-back ((Count/Count))
system.o3Cpu7.interrupts.clk_domain.clock         3200                       # Clock period in ticks (Tick)
system.o3Cpu7.lsq0.forwLoads                     6670                       # Number of loads that had data forwarded from stores (Count)
system.o3Cpu7.lsq0.squashedLoads             12114805                       # Number of loads squashed (Count)
system.o3Cpu7.lsq0.ignoredResponses                 4                       # Number of memory responses ignored because the instruction is squashed (Count)
system.o3Cpu7.lsq0.memOrderViolation           239331                       # Number of memory ordering violations (Count)
system.o3Cpu7.lsq0.squashedStores             1172863                       # Number of stores squashed (Count)
system.o3Cpu7.lsq0.rescheduledLoads                52                       # Number of loads that were rescheduled (Count)
system.o3Cpu7.lsq0.blockedByCache                 499                       # Number of times an access to memory failed due to the cache being blocked (Count)
system.o3Cpu7.lsq0.loadToUse::samples         5667864                       # Distribution of cycle latency between the first time a load is issued and its completion (Unspecified)
system.o3Cpu7.lsq0.loadToUse::mean          54.219056                       # Distribution of cycle latency between the first time a load is issued and its completion (Unspecified)
system.o3Cpu7.lsq0.loadToUse::stdev        222.210110                       # Distribution of cycle latency between the first time a load is issued and its completion (Unspecified)
system.o3Cpu7.lsq0.loadToUse::0-9             5079343     89.62%     89.62% # Distribution of cycle latency between the first time a load is issued and its completion (Unspecified)
system.o3Cpu7.lsq0.loadToUse::10-19            134423      2.37%     91.99% # Distribution of cycle latency between the first time a load is issued and its completion (Unspecified)
system.o3Cpu7.lsq0.loadToUse::20-29             91085      1.61%     93.60% # Distribution of cycle latency between the first time a load is issued and its completion (Unspecified)
system.o3Cpu7.lsq0.loadToUse::30-39              9077      0.16%     93.76% # Distribution of cycle latency between the first time a load is issued and its completion (Unspecified)
system.o3Cpu7.lsq0.loadToUse::40-49              3238      0.06%     93.81% # Distribution of cycle latency between the first time a load is issued and its completion (Unspecified)
system.o3Cpu7.lsq0.loadToUse::50-59              1245      0.02%     93.83% # Distribution of cycle latency between the first time a load is issued and its completion (Unspecified)
system.o3Cpu7.lsq0.loadToUse::60-69               522      0.01%     93.84% # Distribution of cycle latency between the first time a load is issued and its completion (Unspecified)
system.o3Cpu7.lsq0.loadToUse::70-79               516      0.01%     93.85% # Distribution of cycle latency between the first time a load is issued and its completion (Unspecified)
system.o3Cpu7.lsq0.loadToUse::80-89               467      0.01%     93.86% # Distribution of cycle latency between the first time a load is issued and its completion (Unspecified)
system.o3Cpu7.lsq0.loadToUse::90-99               393      0.01%     93.87% # Distribution of cycle latency between the first time a load is issued and its completion (Unspecified)
system.o3Cpu7.lsq0.loadToUse::100-109             409      0.01%     93.88% # Distribution of cycle latency between the first time a load is issued and its completion (Unspecified)
system.o3Cpu7.lsq0.loadToUse::110-119             339      0.01%     93.88% # Distribution of cycle latency between the first time a load is issued and its completion (Unspecified)
system.o3Cpu7.lsq0.loadToUse::120-129             358      0.01%     93.89% # Distribution of cycle latency between the first time a load is issued and its completion (Unspecified)
system.o3Cpu7.lsq0.loadToUse::130-139             370      0.01%     93.89% # Distribution of cycle latency between the first time a load is issued and its completion (Unspecified)
system.o3Cpu7.lsq0.loadToUse::140-149             407      0.01%     93.90% # Distribution of cycle latency between the first time a load is issued and its completion (Unspecified)
system.o3Cpu7.lsq0.loadToUse::150-159             421      0.01%     93.91% # Distribution of cycle latency between the first time a load is issued and its completion (Unspecified)
system.o3Cpu7.lsq0.loadToUse::160-169             306      0.01%     93.91% # Distribution of cycle latency between the first time a load is issued and its completion (Unspecified)
system.o3Cpu7.lsq0.loadToUse::170-179             332      0.01%     93.92% # Distribution of cycle latency between the first time a load is issued and its completion (Unspecified)
system.o3Cpu7.lsq0.loadToUse::180-189             388      0.01%     93.93% # Distribution of cycle latency between the first time a load is issued and its completion (Unspecified)
system.o3Cpu7.lsq0.loadToUse::190-199             407      0.01%     93.93% # Distribution of cycle latency between the first time a load is issued and its completion (Unspecified)
system.o3Cpu7.lsq0.loadToUse::200-209             391      0.01%     93.94% # Distribution of cycle latency between the first time a load is issued and its completion (Unspecified)
system.o3Cpu7.lsq0.loadToUse::210-219             331      0.01%     93.95% # Distribution of cycle latency between the first time a load is issued and its completion (Unspecified)
system.o3Cpu7.lsq0.loadToUse::220-229             304      0.01%     93.95% # Distribution of cycle latency between the first time a load is issued and its completion (Unspecified)
system.o3Cpu7.lsq0.loadToUse::230-239             262      0.00%     93.96% # Distribution of cycle latency between the first time a load is issued and its completion (Unspecified)
system.o3Cpu7.lsq0.loadToUse::240-249             234      0.00%     93.96% # Distribution of cycle latency between the first time a load is issued and its completion (Unspecified)
system.o3Cpu7.lsq0.loadToUse::250-259             263      0.00%     93.97% # Distribution of cycle latency between the first time a load is issued and its completion (Unspecified)
system.o3Cpu7.lsq0.loadToUse::260-269             259      0.00%     93.97% # Distribution of cycle latency between the first time a load is issued and its completion (Unspecified)
system.o3Cpu7.lsq0.loadToUse::270-279             227      0.00%     93.97% # Distribution of cycle latency between the first time a load is issued and its completion (Unspecified)
system.o3Cpu7.lsq0.loadToUse::280-289             277      0.00%     93.98% # Distribution of cycle latency between the first time a load is issued and its completion (Unspecified)
system.o3Cpu7.lsq0.loadToUse::290-299             289      0.01%     93.98% # Distribution of cycle latency between the first time a load is issued and its completion (Unspecified)
system.o3Cpu7.lsq0.loadToUse::overflows        340981      6.02%    100.00% # Distribution of cycle latency between the first time a load is issued and its completion (Unspecified)
system.o3Cpu7.lsq0.loadToUse::min_value             2                       # Distribution of cycle latency between the first time a load is issued and its completion (Unspecified)
system.o3Cpu7.lsq0.loadToUse::max_value          3604                       # Distribution of cycle latency between the first time a load is issued and its completion (Unspecified)
system.o3Cpu7.lsq0.loadToUse::total           5667864                       # Distribution of cycle latency between the first time a load is issued and its completion (Unspecified)
system.o3Cpu7.mmu.dtb.rdAccesses              9619569                       # TLB accesses on read requests (Count)
system.o3Cpu7.mmu.dtb.wrAccesses               751364                       # TLB accesses on write requests (Count)
system.o3Cpu7.mmu.dtb.rdMisses                 132668                       # TLB misses on read requests (Count)
system.o3Cpu7.mmu.dtb.wrMisses                   2382                       # TLB misses on write requests (Count)
system.o3Cpu7.mmu.dtb.walker.power_state.pwrStateResidencyTicks::UNDEFINED  58982956400                       # Cumulative time (in ticks) in various power states (Tick)
system.o3Cpu7.mmu.itb.rdAccesses                    0                       # TLB accesses on read requests (Count)
system.o3Cpu7.mmu.itb.wrAccesses              3611669                       # TLB accesses on write requests (Count)
system.o3Cpu7.mmu.itb.rdMisses                      0                       # TLB misses on read requests (Count)
system.o3Cpu7.mmu.itb.wrMisses                    163                       # TLB misses on write requests (Count)
system.o3Cpu7.mmu.itb.walker.power_state.pwrStateResidencyTicks::UNDEFINED  58982956400                       # Cumulative time (in ticks) in various power states (Tick)
system.o3Cpu7.power_state.pwrStateResidencyTicks::OFF  58982956400                       # Cumulative time (in ticks) in various power states (Tick)
system.o3Cpu7.rename.squashCycles              585236                       # Number of cycles rename is squashing (Cycle)
system.o3Cpu7.rename.idleCycles               4375325                       # Number of cycles rename is idle (Cycle)
system.o3Cpu7.rename.blockCycles            254357960                       # Number of cycles rename is blocking (Cycle)
system.o3Cpu7.rename.serializeStallCycles       360152                       # count of cycles rename stalled for serializing inst (Cycle)
system.o3Cpu7.rename.runCycles               10240889                       # Number of cycles rename is running (Cycle)
system.o3Cpu7.rename.unblockCycles           19811434                       # Number of cycles rename is unblocking (Cycle)
system.o3Cpu7.rename.renamedInsts            91010586                       # Number of instructions processed by rename (Count)
system.o3Cpu7.rename.ROBFullEvents             230377                       # Number of times rename has blocked due to ROB full (Count)
system.o3Cpu7.rename.IQFullEvents             9155513                       # Number of times rename has blocked due to IQ full (Count)
system.o3Cpu7.rename.LQFullEvents            10847000                       # Number of times rename has blocked due to LQ full (Count)
system.o3Cpu7.rename.SQFullEvents               38251                       # Number of times rename has blocked due to SQ full (Count)
system.o3Cpu7.rename.renamedOperands        166597785                       # Number of destination operands rename has renamed (Count)
system.o3Cpu7.rename.lookups                321943639                       # Number of register rename lookups that rename has made (Count)
system.o3Cpu7.rename.intLookups             112634281                       # Number of integer rename lookups (Count)
system.o3Cpu7.rename.fpLookups                3133657                       # Number of floating rename lookups (Count)
system.o3Cpu7.rename.committedMaps           50612152                       # Number of HB maps that are committed (Count)
system.o3Cpu7.rename.undoneMaps             115985458                       # Number of HB maps that are undone due to squashing (Count)
system.o3Cpu7.rename.serializing                 2468                       # count of serializing insts renamed (Count)
system.o3Cpu7.rename.tempSerializing             2570                       # count of temporary serializing insts renamed (Count)
system.o3Cpu7.rename.skidInsts               23624726                       # count of insts added to the skid buffer (Count)
system.o3Cpu7.rob.reads                     368670216                       # The number of ROB reads (Count)
system.o3Cpu7.rob.writes                    185870969                       # The number of ROB writes (Count)
system.o3Cpu7.thread_0.numInsts              16254349                       # Number of Instructions committed (Count)
system.o3Cpu7.thread_0.numOps                28094488                       # Number of Ops committed (Count)
system.o3Cpu7.thread_0.numMemRefs                   0                       # Number of Memory References (Count)
system.pc.bad_addr.power_state.pwrStateResidencyTicks::UNDEFINED  58982956400                       # Cumulative time (in ticks) in various power states (Tick)
system.pc.com_1.power_state.pwrStateResidencyTicks::UNDEFINED  58982956400                       # Cumulative time (in ticks) in various power states (Tick)
system.pc.default_bus.power_state.pwrStateResidencyTicks::UNDEFINED  58982956400                       # Cumulative time (in ticks) in various power states (Tick)
system.pc.empty_isa.power_state.pwrStateResidencyTicks::UNDEFINED  58982956400                       # Cumulative time (in ticks) in various power states (Tick)
system.pc.fake_com_2.power_state.pwrStateResidencyTicks::UNDEFINED  58982956400                       # Cumulative time (in ticks) in various power states (Tick)
system.pc.fake_com_3.power_state.pwrStateResidencyTicks::UNDEFINED  58982956400                       # Cumulative time (in ticks) in various power states (Tick)
system.pc.fake_com_4.power_state.pwrStateResidencyTicks::UNDEFINED  58982956400                       # Cumulative time (in ticks) in various power states (Tick)
system.pc.fake_floppy.power_state.pwrStateResidencyTicks::UNDEFINED  58982956400                       # Cumulative time (in ticks) in various power states (Tick)
system.pc.pci_host.power_state.pwrStateResidencyTicks::UNDEFINED  58982956400                       # Cumulative time (in ticks) in various power states (Tick)
system.pc.south_bridge.cmos.power_state.pwrStateResidencyTicks::UNDEFINED  58982956400                       # Cumulative time (in ticks) in various power states (Tick)
system.pc.south_bridge.dma1.power_state.pwrStateResidencyTicks::UNDEFINED  58982956400                       # Cumulative time (in ticks) in various power states (Tick)
system.pc.south_bridge.ide.disks0.IdeDisk.dmaReadFullPages            0                       # Number of full page size DMA reads (not PRD). (Count)
system.pc.south_bridge.ide.disks0.IdeDisk.dmaReadBytes            0                       # Number of bytes transfered via DMA reads (not PRD). (Byte)
system.pc.south_bridge.ide.disks0.IdeDisk.dmaReadTxs            0                       # Number of DMA read transactions (not PRD). (Count)
system.pc.south_bridge.ide.disks0.IdeDisk.dmaWriteFullPages            0                       # Number of full page size DMA writes. (Count)
system.pc.south_bridge.ide.disks0.IdeDisk.dmaWriteBytes            0                       # Number of bytes transfered via DMA writes. (Byte)
system.pc.south_bridge.ide.disks0.IdeDisk.dmaWriteTxs            0                       # Number of DMA write transactions. (Count)
system.pc.south_bridge.ide.disks1.IdeDisk.dmaReadFullPages            0                       # Number of full page size DMA reads (not PRD). (Count)
system.pc.south_bridge.ide.disks1.IdeDisk.dmaReadBytes            0                       # Number of bytes transfered via DMA reads (not PRD). (Byte)
system.pc.south_bridge.ide.disks1.IdeDisk.dmaReadTxs            0                       # Number of DMA read transactions (not PRD). (Count)
system.pc.south_bridge.ide.disks1.IdeDisk.dmaWriteFullPages            0                       # Number of full page size DMA writes. (Count)
system.pc.south_bridge.ide.disks1.IdeDisk.dmaWriteBytes            0                       # Number of bytes transfered via DMA writes. (Byte)
system.pc.south_bridge.ide.disks1.IdeDisk.dmaWriteTxs            0                       # Number of DMA write transactions. (Count)
system.pc.south_bridge.ide.power_state.pwrStateResidencyTicks::UNDEFINED  58982956400                       # Cumulative time (in ticks) in various power states (Tick)
system.pc.south_bridge.io_apic.power_state.pwrStateResidencyTicks::UNDEFINED  58982956400                       # Cumulative time (in ticks) in various power states (Tick)
system.pc.south_bridge.keyboard.power_state.pwrStateResidencyTicks::UNDEFINED  58982956400                       # Cumulative time (in ticks) in various power states (Tick)
system.pc.south_bridge.pic1.power_state.pwrStateResidencyTicks::UNDEFINED  58982956400                       # Cumulative time (in ticks) in various power states (Tick)
system.pc.south_bridge.pic2.power_state.pwrStateResidencyTicks::UNDEFINED  58982956400                       # Cumulative time (in ticks) in various power states (Tick)
system.pc.south_bridge.pit.power_state.pwrStateResidencyTicks::UNDEFINED  58982956400                       # Cumulative time (in ticks) in various power states (Tick)
system.pc.south_bridge.speaker.power_state.pwrStateResidencyTicks::UNDEFINED  58982956400                       # Cumulative time (in ticks) in various power states (Tick)
system.workload.inst.arm                            0                       # number of arm instructions executed (Count)
system.workload.inst.quiesce                        0                       # number of quiesce instructions executed (Count)

---------- End Simulation Statistics   ----------
