
---------- Begin Simulation Statistics ----------
simSeconds                                   0.074003                       # Number of seconds simulated (Second)
simTicks                                  74003066440                       # Number of ticks simulated (Tick)
finalTick                                274313087963400                       # Number of ticks from beginning of simulation (restored from checkpoints and never reset) (Tick)
simFreq                                  1000000000000                       # The number of ticks per simulated second ((Tick/Second))
hostSeconds                                   7093.67                       # Real time elapsed on the host (Second)
hostTickRate                                 10432275                       # The number of ticks simulated per host second (ticks/s) ((Tick/Second))
hostMemory                                   71762412                       # Number of bytes of host memory used (Byte)
simInsts                                    131366952                       # Number of instructions simulated (Count)
simOps                                      227403632                       # Number of ops (including micro ops) simulated (Count)
hostInstRate                                    18519                       # Simulator instruction rate (inst/s) ((Count/Second))
hostOpRate                                      32057                       # Simulator op (including micro ops) rate (op/s) ((Count/Second))
system.caches.delayHistogram::bucket_size          256                       # delay histogram for all message (Unspecified)
system.caches.delayHistogram::max_bucket         2559                       # delay histogram for all message (Unspecified)
system.caches.delayHistogram::samples        46443628                       # delay histogram for all message (Unspecified)
system.caches.delayHistogram::mean           0.489368                       # delay histogram for all message (Unspecified)
system.caches.delayHistogram::stdev          1.941570                       # delay histogram for all message (Unspecified)
system.caches.delayHistogram             |    46443627    100.00%    100.00% |           0      0.00%    100.00% |           0      0.00%    100.00% |           0      0.00%    100.00% |           0      0.00%    100.00% |           0      0.00%    100.00% |           1      0.00%    100.00% |           0      0.00%    100.00% |           0      0.00%    100.00% |           0      0.00%    100.00% # delay histogram for all message (Unspecified)
system.caches.delayHistogram::total          46443628                       # delay histogram for all message (Unspecified)
system.caches.m_outstandReqHistSeqr::bucket_size            2                       (Unspecified)
system.caches.m_outstandReqHistSeqr::max_bucket           19                       (Unspecified)
system.caches.m_outstandReqHistSeqr::samples    130462434                       (Unspecified)
system.caches.m_outstandReqHistSeqr::mean     1.951821                       (Unspecified)
system.caches.m_outstandReqHistSeqr::gmean     1.678321                       (Unspecified)
system.caches.m_outstandReqHistSeqr::stdev     1.147275                       (Unspecified)
system.caches.m_outstandReqHistSeqr      |    60525659     46.39%     46.39% |    55290653     42.38%     88.77% |    13609522     10.43%     99.21% |      993860      0.76%     99.97% |       41061      0.03%    100.00% |        1438      0.00%    100.00% |         176      0.00%    100.00% |          29      0.00%    100.00% |          36      0.00%    100.00% |           0      0.00%    100.00% (Unspecified)
system.caches.m_outstandReqHistSeqr::total    130462434                       (Unspecified)
system.caches.m_latencyHistSeqr::bucket_size         1024                       (Unspecified)
system.caches.m_latencyHistSeqr::max_bucket        10239                       (Unspecified)
system.caches.m_latencyHistSeqr::samples    130467690                       (Unspecified)
system.caches.m_latencyHistSeqr::mean       33.169362                       (Unspecified)
system.caches.m_latencyHistSeqr::gmean       1.368654                       (Unspecified)
system.caches.m_latencyHistSeqr::stdev     177.290349                       (Unspecified)
system.caches.m_latencyHistSeqr          |   129245602     99.06%     99.06% |     1122584      0.86%     99.92% |       97625      0.07%    100.00% |        1799      0.00%    100.00% |          74      0.00%    100.00% |           5      0.00%    100.00% |           1      0.00%    100.00% |           0      0.00%    100.00% |           0      0.00%    100.00% |           0      0.00%    100.00% (Unspecified)
system.caches.m_latencyHistSeqr::total      130467690                       (Unspecified)
system.caches.m_hitLatencyHistSeqr::bucket_size          512                       (Unspecified)
system.caches.m_hitLatencyHistSeqr::max_bucket         5119                       (Unspecified)
system.caches.m_hitLatencyHistSeqr::samples    122673514                       (Unspecified)
system.caches.m_hitLatencyHistSeqr::mean     1.005150                       (Unspecified)
system.caches.m_hitLatencyHistSeqr::gmean     1.000762                       (Unspecified)
system.caches.m_hitLatencyHistSeqr::stdev     2.338448                       (Unspecified)
system.caches.m_hitLatencyHistSeqr       |   122673061    100.00%    100.00% |         289      0.00%    100.00% |          76      0.00%    100.00% |          59      0.00%    100.00% |          12      0.00%    100.00% |           8      0.00%    100.00% |           7      0.00%    100.00% |           2      0.00%    100.00% |           0      0.00%    100.00% |           0      0.00%    100.00% (Unspecified)
system.caches.m_hitLatencyHistSeqr::total    122673514                       (Unspecified)
system.caches.m_missLatencyHistSeqr::bucket_size         1024                       (Unspecified)
system.caches.m_missLatencyHistSeqr::max_bucket        10239                       (Unspecified)
system.caches.m_missLatencyHistSeqr::samples      7794176                       (Unspecified)
system.caches.m_missLatencyHistSeqr::mean   539.405932                       (Unspecified)
system.caches.m_missLatencyHistSeqr::gmean   188.898662                       (Unspecified)
system.caches.m_missLatencyHistSeqr::stdev   503.485628                       (Unspecified)
system.caches.m_missLatencyHistSeqr      |     6572252     84.32%     84.32% |     1122449     14.40%     98.72% |       97605      1.25%     99.98% |        1790      0.02%    100.00% |          74      0.00%    100.00% |           5      0.00%    100.00% |           1      0.00%    100.00% |           0      0.00%    100.00% |           0      0.00%    100.00% |           0      0.00%    100.00% (Unspecified)
system.caches.m_missLatencyHistSeqr::total      7794176                       (Unspecified)
system.caches.delayVCHist.vnet_0::bucket_size          256                       # delay histogram for vnet_0 (Unspecified)
system.caches.delayVCHist.vnet_0::max_bucket         2559                       # delay histogram for vnet_0 (Unspecified)
system.caches.delayVCHist.vnet_0::samples     19165833                       # delay histogram for vnet_0 (Unspecified)
system.caches.delayVCHist.vnet_0::mean       0.896644                       # delay histogram for vnet_0 (Unspecified)
system.caches.delayVCHist.vnet_0::stdev      2.646135                       # delay histogram for vnet_0 (Unspecified)
system.caches.delayVCHist.vnet_0         |    19165832    100.00%    100.00% |           0      0.00%    100.00% |           0      0.00%    100.00% |           0      0.00%    100.00% |           0      0.00%    100.00% |           0      0.00%    100.00% |           1      0.00%    100.00% |           0      0.00%    100.00% |           0      0.00%    100.00% |           0      0.00%    100.00% # delay histogram for vnet_0 (Unspecified)
system.caches.delayVCHist.vnet_0::total      19165833                       # delay histogram for vnet_0 (Unspecified)
system.caches.delayVCHist.vnet_1::bucket_size            4                       # delay histogram for vnet_1 (Unspecified)
system.caches.delayVCHist.vnet_1::max_bucket           39                       # delay histogram for vnet_1 (Unspecified)
system.caches.delayVCHist.vnet_1::samples     25087107                       # delay histogram for vnet_1 (Unspecified)
system.caches.delayVCHist.vnet_1::mean       0.220923                       # delay histogram for vnet_1 (Unspecified)
system.caches.delayVCHist.vnet_1::stdev      1.187324                       # delay histogram for vnet_1 (Unspecified)
system.caches.delayVCHist.vnet_1         |    24383787     97.20%     97.20% |      449949      1.79%     98.99% |      219910      0.88%     99.87% |       13932      0.06%     99.92% |       18034      0.07%     99.99% |         600      0.00%    100.00% |         720      0.00%    100.00% |         172      0.00%    100.00% |           2      0.00%    100.00% |           1      0.00%    100.00% # delay histogram for vnet_1 (Unspecified)
system.caches.delayVCHist.vnet_1::total      25087107                       # delay histogram for vnet_1 (Unspecified)
system.caches.delayVCHist.vnet_2::bucket_size            1                       # delay histogram for vnet_2 (Unspecified)
system.caches.delayVCHist.vnet_2::max_bucket            9                       # delay histogram for vnet_2 (Unspecified)
system.caches.delayVCHist.vnet_2::samples      2190688                       # delay histogram for vnet_2 (Unspecified)
system.caches.delayVCHist.vnet_2::mean       0.000352                       # delay histogram for vnet_2 (Unspecified)
system.caches.delayVCHist.vnet_2::stdev      0.026546                       # delay histogram for vnet_2 (Unspecified)
system.caches.delayVCHist.vnet_2         |     2190302     99.98%     99.98% |           0      0.00%     99.98% |         386      0.02%    100.00% |           0      0.00%    100.00% |           0      0.00%    100.00% |           0      0.00%    100.00% |           0      0.00%    100.00% |           0      0.00%    100.00% |           0      0.00%    100.00% |           0      0.00%    100.00% # delay histogram for vnet_2 (Unspecified)
system.caches.delayVCHist.vnet_2::total       2190688                       # delay histogram for vnet_2 (Unspecified)
system.caches.L1Cache_Controller.Load    |     7636342     12.48%     12.48% |     7667262     12.53%     25.02% |     7657874     12.52%     37.54% |     7637700     12.49%     50.02% |     7622965     12.46%     62.49% |     7662583     12.53%     75.01% |     7659654     12.52%     87.54% |     7623860     12.46%    100.00% (Unspecified)
system.caches.L1Cache_Controller.Load::total     61168240                       (Unspecified)
system.caches.L1Cache_Controller.Ifetch  |     7400047     12.48%     12.48% |     7397604     12.48%     24.96% |     7395157     12.47%     37.43% |     7406135     12.49%     49.92% |     7416221     12.51%     62.43% |     7423367     12.52%     74.95% |     7433938     12.54%     87.49% |     7419060     12.51%    100.00% (Unspecified)
system.caches.L1Cache_Controller.Ifetch::total     59291529                       (Unspecified)
system.caches.L1Cache_Controller.Store   |     1261189     12.60%     12.60% |     1245797     12.45%     25.05% |     1246133     12.45%     37.50% |     1248905     12.48%     49.98% |     1253834     12.53%     62.51% |     1248763     12.48%     74.99% |     1252438     12.51%     87.50% |     1250875     12.50%    100.00% (Unspecified)
system.caches.L1Cache_Controller.Store::total     10007934                       (Unspecified)
system.caches.L1Cache_Controller.Inv     |      211191     12.64%     12.64% |      209013     12.51%     25.16% |      208333     12.47%     37.63% |      208512     12.48%     50.12% |      208418     12.48%     62.59% |      208172     12.46%     75.06% |      208323     12.47%     87.53% |      208265     12.47%    100.00% (Unspecified)
system.caches.L1Cache_Controller.Inv::total      1670227                       (Unspecified)
system.caches.L1Cache_Controller.L1_Replacement |      957992     12.53%     12.53% |      954381     12.49%     25.02% |      952564     12.46%     37.48% |      954721     12.49%     49.97% |      953468     12.47%     62.44% |      957489     12.53%     74.97% |      957417     12.53%     87.50% |      955731     12.50%    100.00% (Unspecified)
system.caches.L1Cache_Controller.L1_Replacement::total      7643763                       (Unspecified)
system.caches.L1Cache_Controller.Fwd_GETX |          21     14.58%     14.58% |          31     21.53%     36.11% |          18     12.50%     48.61% |          18     12.50%     61.11% |          16     11.11%     72.22% |          15     10.42%     82.64% |          13      9.03%     91.67% |          12      8.33%    100.00% (Unspecified)
system.caches.L1Cache_Controller.Fwd_GETX::total          144                       (Unspecified)
system.caches.L1Cache_Controller.Fwd_GETS |       65886     12.66%     12.66% |       65339     12.56%     25.22% |       64950     12.48%     37.70% |       64689     12.43%     50.14% |       64991     12.49%     62.63% |       64095     12.32%     74.95% |       65251     12.54%     87.49% |       65111     12.51%    100.00% (Unspecified)
system.caches.L1Cache_Controller.Fwd_GETS::total       520312                       (Unspecified)
system.caches.L1Cache_Controller.Fwd_GET_INSTR |           5    100.00%    100.00% |           0      0.00%    100.00% |           0      0.00%    100.00% |           0      0.00%    100.00% |           0      0.00%    100.00% |           0      0.00%    100.00% |           0      0.00%    100.00% |           0      0.00%    100.00% (Unspecified)
system.caches.L1Cache_Controller.Fwd_GET_INSTR::total            5                       (Unspecified)
system.caches.L1Cache_Controller.Data    |          58    100.00%    100.00% |           0      0.00%    100.00% |           0      0.00%    100.00% |           0      0.00%    100.00% |           0      0.00%    100.00% |           0      0.00%    100.00% |           0      0.00%    100.00% |           0      0.00%    100.00% (Unspecified)
system.caches.L1Cache_Controller.Data::total           58                       (Unspecified)
system.caches.L1Cache_Controller.Data_Exclusive |      707856     12.49%     12.49% |      708311     12.50%     24.99% |      707693     12.49%     37.47% |      707663     12.49%     49.96% |      707297     12.48%     62.44% |      709487     12.52%     74.96% |      710030     12.53%     87.48% |      709420     12.52%    100.00% (Unspecified)
system.caches.L1Cache_Controller.Data_Exclusive::total      5667757                       (Unspecified)
system.caches.L1Cache_Controller.DataS_fromL1 |       65225     12.54%     12.54% |       65937     12.67%     25.21% |       65083     12.51%     37.72% |       64910     12.48%     50.19% |       64372     12.37%     62.56% |       65288     12.55%     75.11% |       64795     12.45%     87.56% |       64707     12.44%    100.00% (Unspecified)
system.caches.L1Cache_Controller.DataS_fromL1::total       520317                       (Unspecified)
system.caches.L1Cache_Controller.Data_all_Acks |      193963     12.68%     12.68% |      189523     12.39%     25.07% |      189243     12.37%     37.45% |      191340     12.51%     49.96% |      190925     12.48%     62.44% |      191915     12.55%     74.99% |      191785     12.54%     87.52% |      190807     12.48%    100.00% (Unspecified)
system.caches.L1Cache_Controller.Data_all_Acks::total      1529501                       (Unspecified)
system.caches.L1Cache_Controller.Ack     |       11139     13.79%     13.79% |        9808     12.14%     25.93% |        9956     12.33%     38.26% |        9947     12.32%     50.58% |        9995     12.37%     62.95% |        9930     12.29%     75.25% |       10124     12.53%     87.78% |        9870     12.22%    100.00% (Unspecified)
system.caches.L1Cache_Controller.Ack::total        80769                       (Unspecified)
system.caches.L1Cache_Controller.Ack_all |       10013     13.07%     13.07% |        9408     12.28%     25.35% |        9467     12.36%     37.71% |        9543     12.46%     50.17% |        9568     12.49%     62.66% |        9526     12.44%     75.10% |        9610     12.55%     87.64% |        9466     12.36%    100.00% (Unspecified)
system.caches.L1Cache_Controller.Ack_all::total        76601                       (Unspecified)
system.caches.L1Cache_Controller.WB_Ack  |      638791     12.56%     12.56% |      633975     12.47%     25.03% |      633847     12.46%     37.49% |      634263     12.47%     49.96% |      634819     12.48%     62.44% |      637311     12.53%     74.97% |      636640     12.52%     87.49% |      636123     12.51%    100.00% (Unspecified)
system.caches.L1Cache_Controller.WB_Ack::total      5085769                       (Unspecified)
system.caches.L1Cache_Controller.NP.Load |      947111     12.49%     12.49% |      947657     12.49%     24.98% |      945831     12.47%     37.45% |      948016     12.50%     49.95% |      945705     12.47%     62.42% |      950733     12.53%     74.95% |      950689     12.53%     87.49% |      949227     12.51%    100.00% (Unspecified)
system.caches.L1Cache_Controller.NP.Load::total      7584969                       (Unspecified)
system.caches.L1Cache_Controller.NP.Ifetch |        7632     19.78%     19.78% |        4445     11.52%     31.30% |        4465     11.57%     42.88% |        4427     11.48%     54.35% |        4464     11.57%     65.92% |        4472     11.59%     77.52% |        4444     11.52%     89.04% |        4230     10.96%    100.00% (Unspecified)
system.caches.L1Cache_Controller.NP.Ifetch::total        38579                       (Unspecified)
system.caches.L1Cache_Controller.NP.Store |        3397     16.36%     16.36% |        2332     11.23%     27.59% |        2327     11.21%     38.80% |        2334     11.24%     50.04% |        3363     16.20%     66.24% |        2339     11.27%     77.51% |        2339     11.27%     88.77% |        2331     11.23%    100.00% (Unspecified)
system.caches.L1Cache_Controller.NP.Store::total        20762                       (Unspecified)
system.caches.L1Cache_Controller.NP.Inv  |      168419     12.63%     12.63% |      166375     12.48%     25.11% |      165956     12.44%     37.55% |      166385     12.48%     50.03% |      166401     12.48%     62.51% |      166750     12.50%     75.01% |      166628     12.50%     87.51% |      166607     12.49%    100.00% (Unspecified)
system.caches.L1Cache_Controller.NP.Inv::total      1333521                       (Unspecified)
system.caches.L1Cache_Controller.I.Load  |        1639     11.29%     11.29% |        2030     13.99%     25.28% |        2066     14.23%     39.51% |        1810     12.47%     51.98% |        1744     12.02%     64.00% |        1781     12.27%     76.27% |        1788     12.32%     88.59% |        1656     11.41%    100.00% (Unspecified)
system.caches.L1Cache_Controller.I.Load::total        14514                       (Unspecified)
system.caches.L1Cache_Controller.I.Ifetch |        7271     12.47%     12.47% |        7254     12.44%     24.91% |        7249     12.43%     37.34% |        7265     12.46%     49.80% |        7263     12.45%     62.25% |        7296     12.51%     74.76% |        7293     12.51%     87.27% |        7425     12.73%    100.00% (Unspecified)
system.caches.L1Cache_Controller.I.Ifetch::total        58316                       (Unspecified)
system.caches.L1Cache_Controller.I.Store |          53     11.50%     11.50% |          53     11.50%     22.99% |          79     17.14%     40.13% |          59     12.80%     52.93% |          51     11.06%     63.99% |          60     13.02%     77.01% |          50     10.85%     87.85% |          56     12.15%    100.00% (Unspecified)
system.caches.L1Cache_Controller.I.Store::total          461                       (Unspecified)
system.caches.L1Cache_Controller.I.L1_Replacement |       33741     11.73%     11.73% |       36762     12.78%     24.51% |       36458     12.68%     37.19% |       36490     12.69%     49.87% |       36440     12.67%     62.54% |       35724     12.42%     74.96% |       36010     12.52%     87.48% |       36005     12.52%    100.00% (Unspecified)
system.caches.L1Cache_Controller.I.L1_Replacement::total       287630                       (Unspecified)
system.caches.L1Cache_Controller.S.Load  |     3809498     12.45%     12.45% |     3856493     12.60%     25.05% |     3848470     12.58%     37.62% |     3823011     12.49%     50.12% |     3788825     12.38%     62.50% |     3840188     12.55%     75.04% |     3830573     12.52%     87.56% |     3806660     12.44%    100.00% (Unspecified)
system.caches.L1Cache_Controller.S.Load::total     30603718                       (Unspecified)
system.caches.L1Cache_Controller.S.Ifetch |     7385143     12.48%     12.48% |     7385905     12.48%     24.95% |     7383443     12.47%     37.43% |     7394443     12.49%     49.92% |     7404494     12.51%     62.43% |     7411599     12.52%     74.95% |     7422201     12.54%     87.49% |     7407405     12.51%    100.00% (Unspecified)
system.caches.L1Cache_Controller.S.Ifetch::total     59194633                       (Unspecified)
system.caches.L1Cache_Controller.S.Store |        9955     13.00%     13.00% |        9409     12.29%     25.28% |        9470     12.37%     37.65% |        9546     12.46%     50.12% |        9573     12.50%     62.62% |        9536     12.45%     75.07% |        9618     12.56%     87.63% |        9476     12.37%    100.00% (Unspecified)
system.caches.L1Cache_Controller.S.Store::total        76583                       (Unspecified)
system.caches.L1Cache_Controller.S.Inv   |       24892     12.91%     12.91% |       24157     12.53%     25.45% |       24003     12.45%     37.90% |       23929     12.41%     50.31% |       23990     12.45%     62.76% |       23782     12.34%     75.09% |       23963     12.43%     87.52% |       24048     12.48%    100.00% (Unspecified)
system.caches.L1Cache_Controller.S.Inv::total       192764                       (Unspecified)
system.caches.L1Cache_Controller.S.L1_Replacement |      285460     12.57%     12.57% |      283644     12.49%     25.07% |      282259     12.43%     37.50% |      283968     12.51%     50.01% |      282209     12.43%     62.44% |      284454     12.53%     74.97% |      284767     12.54%     87.51% |      283603     12.49%    100.00% (Unspecified)
system.caches.L1Cache_Controller.S.L1_Replacement::total      2270364                       (Unspecified)
system.caches.L1Cache_Controller.E.Load  |     1571822     12.50%     12.50% |     1566107     12.46%     24.96% |     1565188     12.45%     37.41% |     1564996     12.45%     49.85% |     1590544     12.65%     62.50% |     1574370     12.52%     75.03% |     1575320     12.53%     87.55% |     1564802     12.45%    100.00% (Unspecified)
system.caches.L1Cache_Controller.E.Load::total     12573149                       (Unspecified)
system.caches.L1Cache_Controller.E.Store |      238986     12.48%     12.48% |      239021     12.48%     24.96% |      239021     12.48%     37.45% |      239482     12.51%     49.95% |      238731     12.47%     62.42% |      239504     12.51%     74.93% |      240098     12.54%     87.47% |      239902     12.53%    100.00% (Unspecified)
system.caches.L1Cache_Controller.E.Store::total      1914745                       (Unspecified)
system.caches.L1Cache_Controller.E.Inv   |       11105     12.33%     12.33% |       11508     12.78%     25.11% |       11357     12.61%     37.72% |       11411     12.67%     50.39% |       11381     12.64%     63.02% |       11049     12.27%     75.29% |       11107     12.33%     87.62% |       11149     12.38%    100.00% (Unspecified)
system.caches.L1Cache_Controller.E.Inv::total        90067                       (Unspecified)
system.caches.L1Cache_Controller.E.L1_Replacement |      400513     12.49%     12.49% |      400263     12.48%     24.98% |      400199     12.48%     37.46% |      399821     12.47%     49.93% |      400101     12.48%     62.41% |      402545     12.55%     74.96% |      401592     12.53%     87.49% |      401257     12.51%    100.00% (Unspecified)
system.caches.L1Cache_Controller.E.L1_Replacement::total      3206291                       (Unspecified)
system.caches.L1Cache_Controller.E.Fwd_GETX |           0      0.00%      0.00% |           9     69.23%     69.23% |           2     15.38%     84.62% |           2     15.38%    100.00% |           0      0.00%    100.00% |           0      0.00%    100.00% |           0      0.00%    100.00% |           0      0.00%    100.00% (Unspecified)
system.caches.L1Cache_Controller.E.Fwd_GETX::total           13                       (Unspecified)
system.caches.L1Cache_Controller.E.Fwd_GETS |       55791     12.56%     12.56% |       55932     12.59%     25.15% |       55544     12.50%     37.65% |       55359     12.46%     50.11% |       55497     12.49%     62.61% |       54866     12.35%     74.96% |       55696     12.54%     87.49% |       55564     12.51%    100.00% (Unspecified)
system.caches.L1Cache_Controller.E.Fwd_GETS::total       444249                       (Unspecified)
system.caches.L1Cache_Controller.E.Fwd_GET_INSTR |           5    100.00%    100.00% |           0      0.00%    100.00% |           0      0.00%    100.00% |           0      0.00%    100.00% |           0      0.00%    100.00% |           0      0.00%    100.00% |           0      0.00%    100.00% |           0      0.00%    100.00% (Unspecified)
system.caches.L1Cache_Controller.E.Fwd_GET_INSTR::total            5                       (Unspecified)
system.caches.L1Cache_Controller.M.Load  |     1306272     12.57%     12.57% |     1294972     12.46%     25.03% |     1296319     12.47%     37.51% |     1299867     12.51%     50.01% |     1296147     12.47%     62.49% |     1295511     12.47%     74.95% |     1301284     12.52%     87.48% |     1301514     12.52%    100.00% (Unspecified)
system.caches.L1Cache_Controller.M.Load::total     10391886                       (Unspecified)
system.caches.L1Cache_Controller.M.Store |     1008798     12.62%     12.62% |      994982     12.44%     25.06% |      995236     12.45%     37.51% |      997484     12.48%     49.99% |     1002116     12.53%     62.52% |      997324     12.47%     74.99% |     1000333     12.51%     87.50% |      999110     12.50%    100.00% (Unspecified)
system.caches.L1Cache_Controller.M.Store::total      7995383                       (Unspecified)
system.caches.L1Cache_Controller.M.Inv   |        6774     12.62%     12.62% |        6928     12.90%     25.52% |        6948     12.94%     38.46% |        6754     12.58%     51.04% |        6638     12.36%     63.41% |        6578     12.25%     75.66% |        6617     12.32%     87.98% |        6451     12.02%    100.00% (Unspecified)
system.caches.L1Cache_Controller.M.Inv::total        53688                       (Unspecified)
system.caches.L1Cache_Controller.M.L1_Replacement |      238278     12.68%     12.68% |      233712     12.43%     25.11% |      233648     12.43%     37.54% |      234442     12.47%     50.02% |      234718     12.49%     62.51% |      234766     12.49%     75.00% |      235048     12.51%     87.50% |      234866     12.50%    100.00% (Unspecified)
system.caches.L1Cache_Controller.M.L1_Replacement::total      1879478                       (Unspecified)
system.caches.L1Cache_Controller.M.Fwd_GETX |          21     16.03%     16.03% |          22     16.79%     32.82% |          16     12.21%     45.04% |          16     12.21%     57.25% |          16     12.21%     69.47% |          15     11.45%     80.92% |          13      9.92%     90.84% |          12      9.16%    100.00% (Unspecified)
system.caches.L1Cache_Controller.M.Fwd_GETX::total          131                       (Unspecified)
system.caches.L1Cache_Controller.M.Fwd_GETS |       10095     13.27%     13.27% |        9407     12.37%     25.64% |        9405     12.37%     38.01% |        9330     12.27%     50.27% |        9493     12.48%     62.75% |        9229     12.13%     74.89% |        9553     12.56%     87.45% |        9546     12.55%    100.00% (Unspecified)
system.caches.L1Cache_Controller.M.Fwd_GETS::total        76058                       (Unspecified)
system.caches.L1Cache_Controller.IS.Inv  |           0      0.00%      0.00% |          42     31.11%     31.11% |          64     47.41%     78.52% |          29     21.48%    100.00% |           0      0.00%    100.00% |           0      0.00%    100.00% |           0      0.00%    100.00% |           0      0.00%    100.00% (Unspecified)
system.caches.L1Cache_Controller.IS.Inv::total          135                       (Unspecified)
system.caches.L1Cache_Controller.IS.Data_Exclusive |      707856     12.49%     12.49% |      708311     12.50%     24.99% |      707693     12.49%     37.47% |      707663     12.49%     49.96% |      707297     12.48%     62.44% |      709487     12.52%     74.96% |      710030     12.53%     87.48% |      709420     12.52%    100.00% (Unspecified)
system.caches.L1Cache_Controller.IS.Data_Exclusive::total      5667757                       (Unspecified)
system.caches.L1Cache_Controller.IS.DataS_fromL1 |       65225     12.54%     12.54% |       65937     12.67%     25.21% |       65083     12.51%     37.72% |       64910     12.48%     50.19% |       64372     12.37%     62.56% |       65288     12.55%     75.11% |       64795     12.45%     87.56% |       64707     12.44%    100.00% (Unspecified)
system.caches.L1Cache_Controller.IS.DataS_fromL1::total       520317                       (Unspecified)
system.caches.L1Cache_Controller.IS.Data_all_Acks |      190571     12.64%     12.64% |      187095     12.41%     25.04% |      186770     12.38%     37.43% |      188915     12.53%     49.95% |      187506     12.43%     62.38% |      189506     12.57%     74.95% |      189388     12.56%     87.51% |      188410     12.49%    100.00% (Unspecified)
system.caches.L1Cache_Controller.IS.Data_all_Acks::total      1508161                       (Unspecified)
system.caches.L1Cache_Controller.IM.Data |          58    100.00%    100.00% |           0      0.00%    100.00% |           0      0.00%    100.00% |           0      0.00%    100.00% |           0      0.00%    100.00% |           0      0.00%    100.00% |           0      0.00%    100.00% |           0      0.00%    100.00% (Unspecified)
system.caches.L1Cache_Controller.IM.Data::total           58                       (Unspecified)
system.caches.L1Cache_Controller.IM.Data_all_Acks |        3392     16.00%     16.00% |        2386     11.25%     27.25% |        2409     11.36%     38.61% |        2396     11.30%     49.91% |        3419     16.12%     66.03% |        2409     11.36%     77.39% |        2397     11.30%     88.70% |        2397     11.30%    100.00% (Unspecified)
system.caches.L1Cache_Controller.IM.Data_all_Acks::total        21205                       (Unspecified)
system.caches.L1Cache_Controller.SM.Inv  |           0      0.00%      0.00% |           1      2.50%      2.50% |           3      7.50%     10.00% |           3      7.50%     17.50% |           5     12.50%     30.00% |          10     25.00%     55.00% |           8     20.00%     75.00% |          10     25.00%    100.00% (Unspecified)
system.caches.L1Cache_Controller.SM.Inv::total           40                       (Unspecified)
system.caches.L1Cache_Controller.SM.Ack  |       11139     13.79%     13.79% |        9808     12.14%     25.93% |        9956     12.33%     38.26% |        9947     12.32%     50.58% |        9995     12.37%     62.95% |        9930     12.29%     75.25% |       10124     12.53%     87.78% |        9870     12.22%    100.00% (Unspecified)
system.caches.L1Cache_Controller.SM.Ack::total        80769                       (Unspecified)
system.caches.L1Cache_Controller.SM.Ack_all |       10013     13.07%     13.07% |        9408     12.28%     25.35% |        9467     12.36%     37.71% |        9543     12.46%     50.17% |        9568     12.49%     62.66% |        9526     12.44%     75.10% |        9610     12.55%     87.64% |        9466     12.36%    100.00% (Unspecified)
system.caches.L1Cache_Controller.SM.Ack_all::total        76601                       (Unspecified)
system.caches.L1Cache_Controller.IS_I.Data_all_Acks |           0      0.00%      0.00% |          42     31.11%     31.11% |          64     47.41%     78.52% |          29     21.48%    100.00% |           0      0.00%    100.00% |           0      0.00%    100.00% |           0      0.00%    100.00% |           0      0.00%    100.00% (Unspecified)
system.caches.L1Cache_Controller.IS_I.Data_all_Acks::total          135                       (Unspecified)
system.caches.L1Cache_Controller.M_I.Load |           0      0.00%      0.00% |           3     75.00%     75.00% |           0      0.00%     75.00% |           0      0.00%     75.00% |           0      0.00%     75.00% |           0      0.00%     75.00% |           0      0.00%     75.00% |           1     25.00%    100.00% (Unspecified)
system.caches.L1Cache_Controller.M_I.Load::total            4                       (Unspecified)
system.caches.L1Cache_Controller.M_I.Ifetch |           1    100.00%    100.00% |           0      0.00%    100.00% |           0      0.00%    100.00% |           0      0.00%    100.00% |           0      0.00%    100.00% |           0      0.00%    100.00% |           0      0.00%    100.00% |           0      0.00%    100.00% (Unspecified)
system.caches.L1Cache_Controller.M_I.Ifetch::total            1                       (Unspecified)
system.caches.L1Cache_Controller.M_I.Inv |           1      8.33%      8.33% |           2     16.67%     25.00% |           2     16.67%     41.67% |           1      8.33%     50.00% |           3     25.00%     75.00% |           3     25.00%    100.00% |           0      0.00%    100.00% |           0      0.00%    100.00% (Unspecified)
system.caches.L1Cache_Controller.M_I.Inv::total           12                       (Unspecified)
system.caches.L1Cache_Controller.M_I.Fwd_GETS |           0      0.00%      0.00% |           0      0.00%      0.00% |           1     20.00%     20.00% |           0      0.00%     20.00% |           1     20.00%     40.00% |           0      0.00%     40.00% |           2     40.00%     80.00% |           1     20.00%    100.00% (Unspecified)
system.caches.L1Cache_Controller.M_I.Fwd_GETS::total            5                       (Unspecified)
system.caches.L1Cache_Controller.M_I.WB_Ack |      638790     12.56%     12.56% |      633973     12.47%     25.03% |      633844     12.46%     37.49% |      634262     12.47%     49.96% |      634815     12.48%     62.44% |      637308     12.53%     74.97% |      636638     12.52%     87.49% |      636122     12.51%    100.00% (Unspecified)
system.caches.L1Cache_Controller.M_I.WB_Ack::total      5085752                       (Unspecified)
system.caches.L1Cache_Controller.SINK_WB_ACK.WB_Ack |           1      5.88%      5.88% |           2     11.76%     17.65% |           3     17.65%     35.29% |           1      5.88%     41.18% |           4     23.53%     64.71% |           3     17.65%     82.35% |           2     11.76%     94.12% |           1      5.88%    100.00% (Unspecified)
system.caches.L1Cache_Controller.SINK_WB_ACK.WB_Ack::total           17                       (Unspecified)
system.caches.Directory_Controller.Fetch |       16120      0.32%      0.32% |     4992193     99.68%    100.00% (Unspecified)
system.caches.Directory_Controller.Fetch::total      5008313                       (Unspecified)
system.caches.Directory_Controller.Data  |        1157      0.06%      0.06% |     1843961     99.94%    100.00% (Unspecified)
system.caches.Directory_Controller.Data::total      1845118                       (Unspecified)
system.caches.Directory_Controller.Memory_Data |       16120      0.32%      0.32% |     4992185     99.68%    100.00% (Unspecified)
system.caches.Directory_Controller.Memory_Data::total      5008305                       (Unspecified)
system.caches.Directory_Controller.Memory_Ack |        1157      0.06%      0.06% |     1843961     99.94%    100.00% (Unspecified)
system.caches.Directory_Controller.Memory_Ack::total      1845118                       (Unspecified)
system.caches.Directory_Controller.CleanReplacement |       14845      0.47%      0.47% |     3148350     99.53%    100.00% (Unspecified)
system.caches.Directory_Controller.CleanReplacement::total      3163195                       (Unspecified)
system.caches.Directory_Controller.I.Fetch |       16120      0.32%      0.32% |     4992193     99.68%    100.00% (Unspecified)
system.caches.Directory_Controller.I.Fetch::total      5008313                       (Unspecified)
system.caches.Directory_Controller.M.Data |        1157      0.06%      0.06% |     1843961     99.94%    100.00% (Unspecified)
system.caches.Directory_Controller.M.Data::total      1845118                       (Unspecified)
system.caches.Directory_Controller.M.CleanReplacement |       14845      0.47%      0.47% |     3148350     99.53%    100.00% (Unspecified)
system.caches.Directory_Controller.M.CleanReplacement::total      3163195                       (Unspecified)
system.caches.Directory_Controller.IM.Memory_Data |       16120      0.32%      0.32% |     4992185     99.68%    100.00% (Unspecified)
system.caches.Directory_Controller.IM.Memory_Data::total      5008305                       (Unspecified)
system.caches.Directory_Controller.MI.Memory_Ack |        1157      0.06%      0.06% |     1843961     99.94%    100.00% (Unspecified)
system.caches.Directory_Controller.MI.Memory_Ack::total      1845118                       (Unspecified)
system.caches.L2Cache_Controller.L1_GET_INSTR |       12887     13.27%     13.27% |       13948     14.36%     27.63% |       12721     13.10%     40.72% |        8499      8.75%     49.47% |       11867     12.22%     61.69% |       11997     12.35%     74.04% |       12015     12.37%     86.41% |       13199     13.59%    100.00% (Unspecified)
system.caches.L2Cache_Controller.L1_GET_INSTR::total        97133                       (Unspecified)
system.caches.L2Cache_Controller.L1_GETS |      951891     12.52%     12.52% |      960630     12.64%     25.16% |      953248     12.54%     37.70% |      951146     12.51%     50.22% |      940075     12.37%     62.58% |      942971     12.41%     74.99% |      959432     12.62%     87.61% |      941649     12.39%    100.00% (Unspecified)
system.caches.L2Cache_Controller.L1_GETS::total      7601042                       (Unspecified)
system.caches.L2Cache_Controller.L1_GETX |        3278     15.38%     15.38% |        2369     11.11%     26.49% |        1323      6.21%     32.70% |        1846      8.66%     41.36% |        1842      8.64%     50.00% |        4298     20.16%     70.16% |        2810     13.18%     83.34% |        3551     16.66%    100.00% (Unspecified)
system.caches.L2Cache_Controller.L1_GETX::total        21317                       (Unspecified)
system.caches.L2Cache_Controller.L1_UPGRADE |        9857     12.85%     12.85% |        9182     11.97%     24.82% |        9432     12.30%     37.12% |        9548     12.45%     49.57% |        9434     12.30%     61.87% |        9564     12.47%     74.34% |        9830     12.82%     87.15% |        9855     12.85%    100.00% (Unspecified)
system.caches.L2Cache_Controller.L1_UPGRADE::total        76702                       (Unspecified)
system.caches.L2Cache_Controller.L1_PUTX |      638962     12.56%     12.56% |      633501     12.46%     25.02% |      634630     12.48%     37.50% |      637847     12.54%     50.04% |      631624     12.42%     62.46% |      636467     12.51%     74.97% |      637151     12.53%     87.50% |      635580     12.50%    100.00% (Unspecified)
system.caches.L2Cache_Controller.L1_PUTX::total      5085762                       (Unspecified)
system.caches.L2Cache_Controller.L1_PUTX_old |           2      8.33%      8.33% |           4     16.67%     25.00% |           2      8.33%     33.33% |           0      0.00%     33.33% |           2      8.33%     41.67% |           6     25.00%     66.67% |           6     25.00%     91.67% |           2      8.33%    100.00% (Unspecified)
system.caches.L2Cache_Controller.L1_PUTX_old::total           24                       (Unspecified)
system.caches.L2Cache_Controller.L2_Replacement |      225765     12.57%     12.57% |      223275     12.43%     25.00% |      223429     12.44%     37.44% |      225345     12.55%     49.99% |      221913     12.36%     62.34% |      226461     12.61%     74.95% |      224139     12.48%     87.43% |      225789     12.57%    100.00% (Unspecified)
system.caches.L2Cache_Controller.L2_Replacement::total      1796116                       (Unspecified)
system.caches.L2Cache_Controller.L2_Replacement_clean |      404235     12.58%     12.58% |      401159     12.49%     25.07% |      400561     12.47%     37.54% |      401527     12.50%     50.04% |      400805     12.48%     62.52% |      401431     12.50%     75.02% |      401124     12.49%     87.51% |      401355     12.49%    100.00% (Unspecified)
system.caches.L2Cache_Controller.L2_Replacement_clean::total      3212197                       (Unspecified)
system.caches.L2Cache_Controller.Mem_Data |      630000     12.58%     12.58% |      624434     12.47%     25.05% |      623988     12.46%     37.51% |      626868     12.52%     50.02% |      622718     12.43%     62.46% |      627891     12.54%     74.99% |      625262     12.48%     87.48% |      627144     12.52%    100.00% (Unspecified)
system.caches.L2Cache_Controller.Mem_Data::total      5008305                       (Unspecified)
system.caches.L2Cache_Controller.Mem_Ack |      630000     12.58%     12.58% |      624434     12.47%     25.05% |      623990     12.46%     37.51% |      626872     12.52%     50.02% |      622718     12.43%     62.46% |      627892     12.54%     74.99% |      625263     12.48%     87.48% |      627144     12.52%    100.00% (Unspecified)
system.caches.L2Cache_Controller.Mem_Ack::total      5008313                       (Unspecified)
system.caches.L2Cache_Controller.WB_Data |       16795     12.94%     12.94% |       15545     11.98%     24.93% |       15480     11.93%     36.86% |       15876     12.24%     49.09% |       16063     12.38%     61.47% |       16415     12.65%     74.12% |       16299     12.56%     86.69% |       17274     13.31%    100.00% (Unspecified)
system.caches.L2Cache_Controller.WB_Data::total       129747                       (Unspecified)
system.caches.L2Cache_Controller.WB_Data_clean |       55218     12.43%     12.43% |       55351     12.46%     24.89% |       55785     12.56%     37.44% |       55974     12.60%     50.04% |       55512     12.50%     62.54% |       56213     12.65%     75.19% |       54805     12.34%     87.53% |       55412     12.47%    100.00% (Unspecified)
system.caches.L2Cache_Controller.WB_Data_clean::total       444270                       (Unspecified)
system.caches.L2Cache_Controller.Ack     |      125364     12.61%     12.61% |      126606     12.73%     25.34% |      126469     12.72%     38.06% |      121165     12.19%     50.24% |      122972     12.37%     62.61% |      123984     12.47%     75.08% |      123181     12.39%     87.47% |      124631     12.53%    100.00% (Unspecified)
system.caches.L2Cache_Controller.Ack::total       994372                       (Unspecified)
system.caches.L2Cache_Controller.Ack_all |       68125     12.58%     12.58% |       67476     12.46%     25.05% |       67410     12.45%     37.50% |       67567     12.48%     49.98% |       67998     12.56%     62.55% |       68085     12.58%     75.12% |       66659     12.31%     87.44% |       68008     12.56%    100.00% (Unspecified)
system.caches.L2Cache_Controller.Ack_all::total       541328                       (Unspecified)
system.caches.L2Cache_Controller.Unblock |       65155     12.52%     12.52% |       64446     12.39%     24.91% |       65099     12.51%     37.42% |       65440     12.58%     50.00% |       64848     12.46%     62.46% |       65695     12.63%     75.09% |       64445     12.39%     87.47% |       65189     12.53%    100.00% (Unspecified)
system.caches.L2Cache_Controller.Unblock::total       520317                       (Unspecified)
system.caches.L2Cache_Controller.Exclusive_Unblock |      724662     12.57%     12.57% |      717452     12.44%     25.01% |      718535     12.46%     37.48% |      722756     12.54%     50.01% |      716870     12.43%     62.44% |      722276     12.53%     74.97% |      721284     12.51%     87.48% |      721728     12.52%    100.00% (Unspecified)
system.caches.L2Cache_Controller.Exclusive_Unblock::total      5765563                       (Unspecified)
system.caches.L2Cache_Controller.NP.L1_GET_INSTR |        1720     13.22%     13.22% |        1888     14.51%     27.73% |        1643     12.63%     40.36% |        1263      9.71%     50.07% |        1664     12.79%     62.86% |        1520     11.68%     74.54% |        1526     11.73%     86.27% |        1786     13.73%    100.00% (Unspecified)
system.caches.L2Cache_Controller.NP.L1_GET_INSTR::total        13010                       (Unspecified)
system.caches.L2Cache_Controller.NP.L1_GETS |      625175     12.56%     12.56% |      620306     12.47%     25.03% |      621185     12.48%     37.51% |      623856     12.54%     50.05% |      619301     12.45%     62.50% |      622443     12.51%     75.01% |      621310     12.49%     87.49% |      622273     12.51%    100.00% (Unspecified)
system.caches.L2Cache_Controller.NP.L1_GETS::total      4975849                       (Unspecified)
system.caches.L2Cache_Controller.NP.L1_GETX |        3105     15.96%     15.96% |        2240     11.51%     27.48% |        1162      5.97%     33.45% |        1753      9.01%     42.46% |        1753      9.01%     51.47% |        3929     20.20%     71.67% |        2427     12.48%     84.14% |        3085     15.86%    100.00% (Unspecified)
system.caches.L2Cache_Controller.NP.L1_GETX::total        19454                       (Unspecified)
system.caches.L2Cache_Controller.NP.L1_PUTX_old |           1      8.33%      8.33% |           2     16.67%     25.00% |           1      8.33%     33.33% |           0      0.00%     33.33% |           1      8.33%     41.67% |           3     25.00%     66.67% |           3     25.00%     91.67% |           1      8.33%    100.00% (Unspecified)
system.caches.L2Cache_Controller.NP.L1_PUTX_old::total           12                       (Unspecified)
system.caches.L2Cache_Controller.SS.L1_GET_INSTR |        8662     12.50%     12.50% |        9575     13.82%     26.32% |        9028     13.03%     39.35% |        5516      7.96%     47.31% |        8620     12.44%     59.75% |        8859     12.78%     72.53% |        9022     13.02%     85.55% |       10014     14.45%    100.00% (Unspecified)
system.caches.L2Cache_Controller.SS.L1_GET_INSTR::total        69296                       (Unspecified)
system.caches.L2Cache_Controller.SS.L1_GETS |      173867     12.39%     12.39% |      189486     13.51%     25.90% |      178979     12.76%     38.66% |      173050     12.34%     50.99% |      169036     12.05%     63.04% |      168067     11.98%     75.02% |      183593     13.09%     88.11% |      166803     11.89%    100.00% (Unspecified)
system.caches.L2Cache_Controller.SS.L1_GETS::total      1402881                       (Unspecified)
system.caches.L2Cache_Controller.SS.L1_GETX |          35     60.34%     60.34% |           0      0.00%     60.34% |           0      0.00%     60.34% |           0      0.00%     60.34% |           0      0.00%     60.34% |           0      0.00%     60.34% |          23     39.66%    100.00% |           0      0.00%    100.00% (Unspecified)
system.caches.L2Cache_Controller.SS.L1_GETX::total           58                       (Unspecified)
system.caches.L2Cache_Controller.SS.L1_UPGRADE |        9851     12.87%     12.87% |        9175     11.99%     24.86% |        9427     12.32%     37.17% |        9544     12.47%     49.64% |        9431     12.32%     61.96% |        9558     12.49%     74.45% |        9706     12.68%     87.13% |        9851     12.87%    100.00% (Unspecified)
system.caches.L2Cache_Controller.SS.L1_UPGRADE::total        76543                       (Unspecified)
system.caches.L2Cache_Controller.SS.L1_PUTX |           2     40.00%     40.00% |           0      0.00%     40.00% |           1     20.00%     60.00% |           1     20.00%     80.00% |           0      0.00%     80.00% |           0      0.00%     80.00% |           0      0.00%     80.00% |           1     20.00%    100.00% (Unspecified)
system.caches.L2Cache_Controller.SS.L1_PUTX::total            5                       (Unspecified)
system.caches.L2Cache_Controller.SS.L2_Replacement |         576     14.78%     14.78% |         502     12.88%     27.66% |         456     11.70%     39.36% |         514     13.19%     52.55% |         451     11.57%     64.13% |         465     11.93%     76.06% |         471     12.09%     88.14% |         462     11.86%    100.00% (Unspecified)
system.caches.L2Cache_Controller.SS.L2_Replacement::total         3897                       (Unspecified)
system.caches.L2Cache_Controller.SS.L2_Replacement_clean |       55819     12.48%     12.48% |       55879     12.49%     24.97% |       56310     12.59%     37.56% |       55923     12.50%     50.06% |       55876     12.49%     62.55% |       56411     12.61%     75.16% |       55013     12.30%     87.45% |       56133     12.55%    100.00% (Unspecified)
system.caches.L2Cache_Controller.SS.L2_Replacement_clean::total       447364                       (Unspecified)
system.caches.L2Cache_Controller.M.L1_GET_INSTR |           4     10.00%     10.00% |           8     20.00%     30.00% |           4     10.00%     40.00% |           3      7.50%     47.50% |           6     15.00%     62.50% |           6     15.00%     77.50% |           3      7.50%     85.00% |           6     15.00%    100.00% (Unspecified)
system.caches.L2Cache_Controller.M.L1_GET_INSTR::total           40                       (Unspecified)
system.caches.L2Cache_Controller.M.L1_GETS |       86792     12.49%     12.49% |       85872     12.36%     24.86% |       87030     12.53%     37.39% |       87823     12.64%     50.03% |       86550     12.46%     62.49% |       86232     12.41%     74.90% |       87788     12.64%     87.54% |       86532     12.46%    100.00% (Unspecified)
system.caches.L2Cache_Controller.M.L1_GETS::total       694619                       (Unspecified)
system.caches.L2Cache_Controller.M.L1_GETX |         121      7.53%      7.53% |         119      7.41%     14.93% |         155      9.65%     24.58% |          87      5.41%     29.99% |          85      5.29%     35.28% |         352     21.90%     57.19% |         341     21.22%     78.41% |         347     21.59%    100.00% (Unspecified)
system.caches.L2Cache_Controller.M.L1_GETX::total         1607                       (Unspecified)
system.caches.L2Cache_Controller.M.L2_Replacement |      224560     12.56%     12.56% |      222212     12.43%     25.00% |      222388     12.44%     37.44% |      224243     12.55%     49.98% |      220853     12.36%     62.34% |      225344     12.61%     74.95% |      223073     12.48%     87.43% |      224693     12.57%    100.00% (Unspecified)
system.caches.L2Cache_Controller.M.L2_Replacement::total      1787366                       (Unspecified)
system.caches.L2Cache_Controller.M.L2_Replacement_clean |      330457     12.58%     12.58% |      328296     12.50%     25.09% |      328026     12.49%     37.58% |      328652     12.52%     50.09% |      327140     12.46%     62.55% |      327530     12.47%     75.03% |      328872     12.52%     87.55% |      326946     12.45%    100.00% (Unspecified)
system.caches.L2Cache_Controller.M.L2_Replacement_clean::total      2625919                       (Unspecified)
system.caches.L2Cache_Controller.MT.L1_GET_INSTR |           2     40.00%     40.00% |           0      0.00%     40.00% |           0      0.00%     40.00% |           2     40.00%     80.00% |           0      0.00%     80.00% |           0      0.00%     80.00% |           1     20.00%    100.00% |           0      0.00%    100.00% (Unspecified)
system.caches.L2Cache_Controller.MT.L1_GET_INSTR::total            5                       (Unspecified)
system.caches.L2Cache_Controller.MT.L1_GETS |       65153     12.52%     12.52% |       64446     12.39%     24.91% |       65099     12.51%     37.42% |       65438     12.58%     50.00% |       64848     12.46%     62.46% |       65695     12.63%     75.09% |       64444     12.39%     87.47% |       65189     12.53%    100.00% (Unspecified)
system.caches.L2Cache_Controller.MT.L1_GETS::total       520312                       (Unspecified)
system.caches.L2Cache_Controller.MT.L1_GETX |          13      9.03%      9.03% |           7      4.86%     13.89% |           6      4.17%     18.06% |           4      2.78%     20.83% |           3      2.08%     22.92% |           6      4.17%     27.08% |          11      7.64%     34.72% |          94     65.28%    100.00% (Unspecified)
system.caches.L2Cache_Controller.MT.L1_GETX::total          144                       (Unspecified)
system.caches.L2Cache_Controller.MT.L1_PUTX |      638958     12.56%     12.56% |      633501     12.46%     25.02% |      634628     12.48%     37.50% |      637845     12.54%     50.04% |      631624     12.42%     62.46% |      636467     12.51%     74.97% |      637151     12.53%     87.50% |      635578     12.50%    100.00% (Unspecified)
system.caches.L2Cache_Controller.MT.L1_PUTX::total      5085752                       (Unspecified)
system.caches.L2Cache_Controller.MT.L2_Replacement |         629     12.96%     12.96% |         561     11.56%     24.52% |         585     12.05%     36.58% |         588     12.12%     48.69% |         609     12.55%     61.24% |         652     13.43%     74.68% |         595     12.26%     86.94% |         634     13.06%    100.00% (Unspecified)
system.caches.L2Cache_Controller.MT.L2_Replacement::total         4853                       (Unspecified)
system.caches.L2Cache_Controller.MT.L2_Replacement_clean |       17959     12.93%     12.93% |       16984     12.23%     25.15% |       16225     11.68%     36.83% |       16952     12.20%     49.04% |       17789     12.81%     61.84% |       17490     12.59%     74.43% |       17239     12.41%     86.84% |       18276     13.16%    100.00% (Unspecified)
system.caches.L2Cache_Controller.MT.L2_Replacement_clean::total       138914                       (Unspecified)
system.caches.L2Cache_Controller.M_I.L1_GET_INSTR |         101     42.98%     42.98% |          40     17.02%     60.00% |          56     23.83%     83.83% |          38     16.17%    100.00% |           0      0.00%    100.00% |           0      0.00%    100.00% |           0      0.00%    100.00% |           0      0.00%    100.00% (Unspecified)
system.caches.L2Cache_Controller.M_I.L1_GET_INSTR::total          235                       (Unspecified)
system.caches.L2Cache_Controller.M_I.L1_GETS |          11      4.55%      4.55% |           5      2.07%      6.61% |          33     13.64%     20.25% |          53     21.90%     42.15% |           4      1.65%     43.80% |           5      2.07%     45.87% |          49     20.25%     66.12% |          82     33.88%    100.00% (Unspecified)
system.caches.L2Cache_Controller.M_I.L1_GETS::total          242                       (Unspecified)
system.caches.L2Cache_Controller.M_I.L1_GETX |           4      7.69%      7.69% |           3      5.77%     13.46% |           0      0.00%     13.46% |           2      3.85%     17.31% |           1      1.92%     19.23% |          11     21.15%     40.38% |           6     11.54%     51.92% |          25     48.08%    100.00% (Unspecified)
system.caches.L2Cache_Controller.M_I.L1_GETX::total           52                       (Unspecified)
system.caches.L2Cache_Controller.M_I.Mem_Ack |      630000     12.58%     12.58% |      624434     12.47%     25.05% |      623990     12.46%     37.51% |      626872     12.52%     50.02% |      622718     12.43%     62.46% |      627892     12.54%     74.99% |      625263     12.48%     87.48% |      627144     12.52%    100.00% (Unspecified)
system.caches.L2Cache_Controller.M_I.Mem_Ack::total      5008313                       (Unspecified)
system.caches.L2Cache_Controller.MT_I.WB_Data |         607     12.95%     12.95% |         540     11.52%     24.47% |         560     11.95%     36.42% |         564     12.03%     48.45% |         588     12.55%     61.00% |         634     13.53%     74.53% |         580     12.37%     86.90% |         614     13.10%    100.00% (Unspecified)
system.caches.L2Cache_Controller.MT_I.WB_Data::total         4687                       (Unspecified)
system.caches.L2Cache_Controller.MT_I.Ack_all |          22     13.25%     13.25% |          21     12.65%     25.90% |          25     15.06%     40.96% |          24     14.46%     55.42% |          21     12.65%     68.07% |          18     10.84%     78.92% |          15      9.04%     87.95% |          20     12.05%    100.00% (Unspecified)
system.caches.L2Cache_Controller.MT_I.Ack_all::total          166                       (Unspecified)
system.caches.L2Cache_Controller.MCT_I.L1_PUTX_old |           1      8.33%      8.33% |           2     16.67%     25.00% |           1      8.33%     33.33% |           0      0.00%     33.33% |           1      8.33%     41.67% |           3     25.00%     66.67% |           3     25.00%     91.67% |           1      8.33%    100.00% (Unspecified)
system.caches.L2Cache_Controller.MCT_I.L1_PUTX_old::total           12                       (Unspecified)
system.caches.L2Cache_Controller.MCT_I.WB_Data |        6250     12.75%     12.75% |        5908     12.06%     24.81% |        5605     11.44%     36.25% |        5846     11.93%     48.18% |        6138     12.53%     60.71% |        6297     12.85%     73.56% |        6076     12.40%     85.96% |        6882     14.04%    100.00% (Unspecified)
system.caches.L2Cache_Controller.MCT_I.WB_Data::total        49002                       (Unspecified)
system.caches.L2Cache_Controller.MCT_I.WB_Data_clean |           1      9.09%      9.09% |           2     18.18%     27.27% |           1      9.09%     36.36% |           0      0.00%     36.36% |           1      9.09%     45.45% |           2     18.18%     63.64% |           3     27.27%     90.91% |           1      9.09%    100.00% (Unspecified)
system.caches.L2Cache_Controller.MCT_I.WB_Data_clean::total           11                       (Unspecified)
system.caches.L2Cache_Controller.MCT_I.Ack_all |       11708     13.02%     13.02% |       11074     12.32%     25.34% |       10619     11.81%     37.15% |       11106     12.35%     49.51% |       11650     12.96%     62.47% |       11191     12.45%     74.91% |       11160     12.41%     87.33% |       11393     12.67%    100.00% (Unspecified)
system.caches.L2Cache_Controller.MCT_I.Ack_all::total        89901                       (Unspecified)
system.caches.L2Cache_Controller.I_I.L1_GET_INSTR |           1    100.00%    100.00% |           0      0.00%    100.00% |           0      0.00%    100.00% |           0      0.00%    100.00% |           0      0.00%    100.00% |           0      0.00%    100.00% |           0      0.00%    100.00% |           0      0.00%    100.00% (Unspecified)
system.caches.L2Cache_Controller.I_I.L1_GET_INSTR::total            1                       (Unspecified)
system.caches.L2Cache_Controller.I_I.Ack |      123701     12.55%     12.55% |      125333     12.71%     25.26% |      125643     12.74%     38.01% |      120172     12.19%     50.20% |      122144     12.39%     62.59% |      123142     12.49%     75.08% |      121948     12.37%     87.45% |      123762     12.55%    100.00% (Unspecified)
system.caches.L2Cache_Controller.I_I.Ack::total       985845                       (Unspecified)
system.caches.L2Cache_Controller.I_I.Ack_all |       55819     12.48%     12.48% |       55879     12.49%     24.97% |       56310     12.59%     37.56% |       55923     12.50%     50.06% |       55876     12.49%     62.55% |       56411     12.61%     75.16% |       55013     12.30%     87.45% |       56133     12.55%    100.00% (Unspecified)
system.caches.L2Cache_Controller.I_I.Ack_all::total       447364                       (Unspecified)
system.caches.L2Cache_Controller.S_I.Ack |        1663     19.50%     19.50% |        1273     14.93%     34.43% |         826      9.69%     44.12% |         993     11.65%     55.76% |         828      9.71%     65.47% |         842      9.87%     75.35% |        1233     14.46%     89.81% |         869     10.19%    100.00% (Unspecified)
system.caches.L2Cache_Controller.S_I.Ack::total         8527                       (Unspecified)
system.caches.L2Cache_Controller.S_I.Ack_all |         576     14.78%     14.78% |         502     12.88%     27.66% |         456     11.70%     39.36% |         514     13.19%     52.55% |         451     11.57%     64.13% |         465     11.93%     76.06% |         471     12.09%     88.14% |         462     11.86%    100.00% (Unspecified)
system.caches.L2Cache_Controller.S_I.Ack_all::total         3897                       (Unspecified)
system.caches.L2Cache_Controller.ISS.L1_GETS |         430     15.91%     15.91% |         267      9.88%     25.79% |         428     15.83%     41.62% |         307     11.36%     52.98% |         253      9.36%     62.34% |         243      8.99%     71.33% |         321     11.88%     83.20% |         454     16.80%    100.00% (Unspecified)
system.caches.L2Cache_Controller.ISS.L1_GETS::total         2703                       (Unspecified)
system.caches.L2Cache_Controller.ISS.L1_GETX |           0      0.00%      0.00% |           0      0.00%      0.00% |           0      0.00%      0.00% |           0      0.00%      0.00% |           0      0.00%      0.00% |           0      0.00%      0.00% |           1    100.00%    100.00% |           0      0.00%    100.00% (Unspecified)
system.caches.L2Cache_Controller.ISS.L1_GETX::total            1                       (Unspecified)
system.caches.L2Cache_Controller.ISS.Mem_Data |      624745     12.56%     12.56% |      620039     12.47%     25.03% |      620755     12.48%     37.51% |      623545     12.54%     50.05% |      619048     12.45%     62.50% |      622199     12.51%     75.01% |      620988     12.49%     87.50% |      621819     12.50%    100.00% (Unspecified)
system.caches.L2Cache_Controller.ISS.Mem_Data::total      4973138                       (Unspecified)
system.caches.L2Cache_Controller.IS.L1_GET_INSTR |        2396     16.47%     16.47% |        2437     16.76%     33.23% |        1990     13.68%     46.91% |        1676     11.52%     58.44% |        1577     10.84%     69.28% |        1612     11.08%     80.36% |        1463     10.06%     90.42% |        1393      9.58%    100.00% (Unspecified)
system.caches.L2Cache_Controller.IS.L1_GET_INSTR::total        14544                       (Unspecified)
system.caches.L2Cache_Controller.IS.L1_GETS |         319     10.23%     10.23% |         106      3.40%     13.63% |         482     15.45%     29.08% |         616     19.75%     48.83% |          81      2.60%     51.43% |         285      9.14%     60.56% |         916     29.37%     89.93% |         314     10.07%    100.00% (Unspecified)
system.caches.L2Cache_Controller.IS.L1_GETS::total         3119                       (Unspecified)
system.caches.L2Cache_Controller.IS.Mem_Data |        2150     13.68%     13.68% |        2155     13.71%     27.40% |        2071     13.18%     40.58% |        1570      9.99%     50.57% |        1917     12.20%     62.77% |        1763     11.22%     73.99% |        1847     11.75%     85.74% |        2240     14.26%    100.00% (Unspecified)
system.caches.L2Cache_Controller.IS.Mem_Data::total        15713                       (Unspecified)
system.caches.L2Cache_Controller.IM.L1_GETS |           0      0.00%      0.00% |           0      0.00%      0.00% |           0      0.00%      0.00% |           0      0.00%      0.00% |           0      0.00%      0.00% |           0      0.00%      0.00% |           1    100.00%    100.00% |           0      0.00%    100.00% (Unspecified)
system.caches.L2Cache_Controller.IM.L1_GETS::total            1                       (Unspecified)
system.caches.L2Cache_Controller.IM.Mem_Data |        3105     15.96%     15.96% |        2240     11.51%     27.48% |        1162      5.97%     33.45% |        1753      9.01%     42.46% |        1753      9.01%     51.47% |        3929     20.20%     71.67% |        2427     12.48%     84.14% |        3085     15.86%    100.00% (Unspecified)
system.caches.L2Cache_Controller.IM.Mem_Data::total        19454                       (Unspecified)
system.caches.L2Cache_Controller.SS_MB.L1_GETS |           0      0.00%      0.00% |           0      0.00%      0.00% |           0      0.00%      0.00% |           0      0.00%      0.00% |           0      0.00%      0.00% |           0      0.00%      0.00% |         573    100.00%    100.00% |           0      0.00%    100.00% (Unspecified)
system.caches.L2Cache_Controller.SS_MB.L1_GETS::total          573                       (Unspecified)
system.caches.L2Cache_Controller.SS_MB.L1_UPGRADE |           6     15.00%     15.00% |           7     17.50%     32.50% |           5     12.50%     45.00% |           4     10.00%     55.00% |           3      7.50%     62.50% |           6     15.00%     77.50% |           5     12.50%     90.00% |           4     10.00%    100.00% (Unspecified)
system.caches.L2Cache_Controller.SS_MB.L1_UPGRADE::total           40                       (Unspecified)
system.caches.L2Cache_Controller.SS_MB.Exclusive_Unblock |        9886     12.91%     12.91% |        9175     11.98%     24.88% |        9427     12.31%     37.19% |        9544     12.46%     49.65% |        9431     12.31%     61.96% |        9558     12.48%     74.44% |        9729     12.70%     87.14% |        9851     12.86%    100.00% (Unspecified)
system.caches.L2Cache_Controller.SS_MB.Exclusive_Unblock::total        76601                       (Unspecified)
system.caches.L2Cache_Controller.MT_MB.L1_GETS |          20     62.50%     62.50% |           4     12.50%     75.00% |           1      3.12%     78.12% |           2      6.25%     84.38% |           1      3.12%     87.50% |           1      3.12%     90.62% |           1      3.12%     93.75% |           2      6.25%    100.00% (Unspecified)
system.caches.L2Cache_Controller.MT_MB.L1_GETS::total           32                       (Unspecified)
system.caches.L2Cache_Controller.MT_MB.Exclusive_Unblock |      714776     12.56%     12.56% |      708277     12.45%     25.01% |      709108     12.46%     37.48% |      713212     12.54%     50.02% |      707439     12.44%     62.45% |      712718     12.53%     74.98% |      711555     12.51%     87.49% |      711877     12.51%    100.00% (Unspecified)
system.caches.L2Cache_Controller.MT_MB.Exclusive_Unblock::total      5688962                       (Unspecified)
system.caches.L2Cache_Controller.MT_IIB.L1_GET_INSTR |           1     50.00%     50.00% |           0      0.00%     50.00% |           0      0.00%     50.00% |           1     50.00%    100.00% |           0      0.00%    100.00% |           0      0.00%    100.00% |           0      0.00%    100.00% |           0      0.00%    100.00% (Unspecified)
system.caches.L2Cache_Controller.MT_IIB.L1_GET_INSTR::total            2                       (Unspecified)
system.caches.L2Cache_Controller.MT_IIB.L1_GETS |         107     16.07%     16.07% |         119     17.87%     33.93% |          11      1.65%     35.59% |           1      0.15%     35.74% |           1      0.15%     35.89% |           0      0.00%     35.89% |         427     64.11%    100.00% |           0      0.00%    100.00% (Unspecified)
system.caches.L2Cache_Controller.MT_IIB.L1_GETS::total          666                       (Unspecified)
system.caches.L2Cache_Controller.MT_IIB.L1_GETX |           0      0.00%      0.00% |           0      0.00%      0.00% |           0      0.00%      0.00% |           0      0.00%      0.00% |           0      0.00%      0.00% |           0      0.00%      0.00% |           1    100.00%    100.00% |           0      0.00%    100.00% (Unspecified)
system.caches.L2Cache_Controller.MT_IIB.L1_GETX::total            1                       (Unspecified)
system.caches.L2Cache_Controller.MT_IIB.L1_PUTX |           2     40.00%     40.00% |           0      0.00%     40.00% |           1     20.00%     60.00% |           1     20.00%     80.00% |           0      0.00%     80.00% |           0      0.00%     80.00% |           0      0.00%     80.00% |           1     20.00%    100.00% (Unspecified)
system.caches.L2Cache_Controller.MT_IIB.L1_PUTX::total            5                       (Unspecified)
system.caches.L2Cache_Controller.MT_IIB.WB_Data |        9938     13.07%     13.07% |        9097     11.96%     25.03% |        9315     12.25%     37.27% |        9466     12.45%     49.72% |        9337     12.28%     62.00% |        9483     12.47%     74.47% |        9643     12.68%     87.14% |        9778     12.86%    100.00% (Unspecified)
system.caches.L2Cache_Controller.MT_IIB.WB_Data::total        76057                       (Unspecified)
system.caches.L2Cache_Controller.MT_IIB.WB_Data_clean |       55216     12.43%     12.43% |       55344     12.46%     24.89% |       55782     12.56%     37.44% |       55970     12.60%     50.04% |       55507     12.49%     62.54% |       56209     12.65%     75.19% |       54800     12.34%     87.53% |       55409     12.47%    100.00% (Unspecified)
system.caches.L2Cache_Controller.MT_IIB.WB_Data_clean::total       444237                       (Unspecified)
system.caches.L2Cache_Controller.MT_IIB.Unblock |           1      4.35%      4.35% |           5     21.74%     26.09% |           2      8.70%     34.78% |           4     17.39%     52.17% |           4     17.39%     69.57% |           3     13.04%     82.61% |           2      8.70%     91.30% |           2      8.70%    100.00% (Unspecified)
system.caches.L2Cache_Controller.MT_IIB.Unblock::total           23                       (Unspecified)
system.caches.L2Cache_Controller.MT_IB.WB_Data |           0      0.00%      0.00% |           0      0.00%      0.00% |           0      0.00%      0.00% |           0      0.00%      0.00% |           0      0.00%      0.00% |           1    100.00%    100.00% |           0      0.00%    100.00% |           0      0.00%    100.00% (Unspecified)
system.caches.L2Cache_Controller.MT_IB.WB_Data::total            1                       (Unspecified)
system.caches.L2Cache_Controller.MT_IB.WB_Data_clean |           1      4.55%      4.55% |           5     22.73%     27.27% |           2      9.09%     36.36% |           4     18.18%     54.55% |           4     18.18%     72.73% |           2      9.09%     81.82% |           2      9.09%     90.91% |           2      9.09%    100.00% (Unspecified)
system.caches.L2Cache_Controller.MT_IB.WB_Data_clean::total           22                       (Unspecified)
system.caches.L2Cache_Controller.MT_SB.L1_GETS |          17     37.78%     37.78% |          19     42.22%     80.00% |           0      0.00%     80.00% |           0      0.00%     80.00% |           0      0.00%     80.00% |           0      0.00%     80.00% |           9     20.00%    100.00% |           0      0.00%    100.00% (Unspecified)
system.caches.L2Cache_Controller.MT_SB.L1_GETS::total           45                       (Unspecified)
system.caches.L2Cache_Controller.MT_SB.L1_UPGRADE |           0      0.00%      0.00% |           0      0.00%      0.00% |           0      0.00%      0.00% |           0      0.00%      0.00% |           0      0.00%      0.00% |           0      0.00%      0.00% |         119    100.00%    100.00% |           0      0.00%    100.00% (Unspecified)
system.caches.L2Cache_Controller.MT_SB.L1_UPGRADE::total          119                       (Unspecified)
system.caches.L2Cache_Controller.MT_SB.Unblock |       65154     12.52%     12.52% |       64441     12.39%     24.91% |       65097     12.51%     37.42% |       65436     12.58%     50.00% |       64844     12.46%     62.46% |       65692     12.63%     75.09% |       64443     12.39%     87.47% |       65187     12.53%    100.00% (Unspecified)
system.caches.L2Cache_Controller.MT_SB.Unblock::total       520294                       (Unspecified)
system.caches.RequestType.LD.latency_hist_seqr::bucket_size         1024                       (Unspecified)
system.caches.RequestType.LD.latency_hist_seqr::max_bucket        10239                       (Unspecified)
system.caches.RequestType.LD.latency_hist_seqr::samples     61168228                       (Unspecified)
system.caches.RequestType.LD.latency_hist_seqr::mean    69.124568                       (Unspecified)
system.caches.RequestType.LD.latency_hist_seqr::gmean     1.930961                       (Unspecified)
system.caches.RequestType.LD.latency_hist_seqr::stdev   253.178211                       (Unspecified)
system.caches.RequestType.LD.latency_hist_seqr |    59954108     98.02%     98.02% |     1116009      1.82%     99.84% |       96465      0.16%    100.00% |        1594      0.00%    100.00% |          50      0.00%    100.00% |           2      0.00%    100.00% |           0      0.00%    100.00% |           0      0.00%    100.00% |           0      0.00%    100.00% |           0      0.00%    100.00% (Unspecified)
system.caches.RequestType.LD.latency_hist_seqr::total     61168228                       (Unspecified)
system.caches.RequestType.LD.hit_latency_hist_seqr::bucket_size            1                       (Unspecified)
system.caches.RequestType.LD.hit_latency_hist_seqr::max_bucket            9                       (Unspecified)
system.caches.RequestType.LD.hit_latency_hist_seqr::samples     53568753                       (Unspecified)
system.caches.RequestType.LD.hit_latency_hist_seqr::mean     1.002315                       (Unspecified)
system.caches.RequestType.LD.hit_latency_hist_seqr::gmean     1.001606                       (Unspecified)
system.caches.RequestType.LD.hit_latency_hist_seqr::stdev     0.048062                       (Unspecified)
system.caches.RequestType.LD.hit_latency_hist_seqr |           0      0.00%      0.00% |    53444723     99.77%     99.77% |      124030      0.23%    100.00% |           0      0.00%    100.00% |           0      0.00%    100.00% |           0      0.00%    100.00% |           0      0.00%    100.00% |           0      0.00%    100.00% |           0      0.00%    100.00% |           0      0.00%    100.00% (Unspecified)
system.caches.RequestType.LD.hit_latency_hist_seqr::total     53568753                       (Unspecified)
system.caches.RequestType.LD.miss_latency_hist_seqr::bucket_size         1024                       (Unspecified)
system.caches.RequestType.LD.miss_latency_hist_seqr::max_bucket        10239                       (Unspecified)
system.caches.RequestType.LD.miss_latency_hist_seqr::samples      7599475                       (Unspecified)
system.caches.RequestType.LD.miss_latency_hist_seqr::mean   549.318808                       (Unspecified)
system.caches.RequestType.LD.miss_latency_hist_seqr::gmean   197.369317                       (Unspecified)
system.caches.RequestType.LD.miss_latency_hist_seqr::stdev   502.629638                       (Unspecified)
system.caches.RequestType.LD.miss_latency_hist_seqr |     6385355     84.02%     84.02% |     1116009     14.69%     98.71% |       96465      1.27%     99.98% |        1594      0.02%    100.00% |          50      0.00%    100.00% |           2      0.00%    100.00% |           0      0.00%    100.00% |           0      0.00%    100.00% |           0      0.00%    100.00% |           0      0.00%    100.00% (Unspecified)
system.caches.RequestType.LD.miss_latency_hist_seqr::total      7599475                       (Unspecified)
system.caches.RequestType.ST.latency_hist_seqr::bucket_size          512                       (Unspecified)
system.caches.RequestType.ST.latency_hist_seqr::max_bucket         5119                       (Unspecified)
system.caches.RequestType.ST.latency_hist_seqr::samples      2192697                       (Unspecified)
system.caches.RequestType.ST.latency_hist_seqr::mean     6.076460                       (Unspecified)
system.caches.RequestType.ST.latency_hist_seqr::gmean     1.038457                       (Unspecified)
system.caches.RequestType.ST.latency_hist_seqr::stdev    82.218907                       (Unspecified)
system.caches.RequestType.ST.latency_hist_seqr |     2182831     99.55%     99.55% |        5761      0.26%     99.81% |        2414      0.11%     99.92% |         976      0.04%     99.97% |         448      0.02%     99.99% |         157      0.01%     99.99% |          72      0.00%    100.00% |          28      0.00%    100.00% |           6      0.00%    100.00% |           4      0.00%    100.00% (Unspecified)
system.caches.RequestType.ST.latency_hist_seqr::total      2192697                       (Unspecified)
system.caches.RequestType.ST.hit_latency_hist_seqr::bucket_size          128                       (Unspecified)
system.caches.RequestType.ST.hit_latency_hist_seqr::max_bucket         1279                       (Unspecified)
system.caches.RequestType.ST.hit_latency_hist_seqr::samples      2179705                       (Unspecified)
system.caches.RequestType.ST.hit_latency_hist_seqr::mean     1.002962                       (Unspecified)
system.caches.RequestType.ST.hit_latency_hist_seqr::gmean     1.000721                       (Unspecified)
system.caches.RequestType.ST.hit_latency_hist_seqr::stdev     1.141494                       (Unspecified)
system.caches.RequestType.ST.hit_latency_hist_seqr |     2179698    100.00%    100.00% |           0      0.00%    100.00% |           1      0.00%    100.00% |           2      0.00%    100.00% |           3      0.00%    100.00% |           0      0.00%    100.00% |           0      0.00%    100.00% |           0      0.00%    100.00% |           0      0.00%    100.00% |           1      0.00%    100.00% (Unspecified)
system.caches.RequestType.ST.hit_latency_hist_seqr::total      2179705                       (Unspecified)
system.caches.RequestType.ST.miss_latency_hist_seqr::bucket_size          512                       (Unspecified)
system.caches.RequestType.ST.miss_latency_hist_seqr::max_bucket         5119                       (Unspecified)
system.caches.RequestType.ST.miss_latency_hist_seqr::samples        12992                       (Unspecified)
system.caches.RequestType.ST.miss_latency_hist_seqr::mean   857.271783                       (Unspecified)
system.caches.RequestType.ST.miss_latency_hist_seqr::gmean   516.956799                       (Unspecified)
system.caches.RequestType.ST.miss_latency_hist_seqr::stdev   641.760413                       (Unspecified)
[...]
system.o3Cpu7.iew.squashCycles                 573660                       # Number of cycles IEW is squashing (Cycle)
system.o3Cpu7.iew.blockCycles               239123454                       # Number of cycles IEW is blocking (Cycle)
system.o3Cpu7.iew.unblockCycles              14549233                       # Number of cycles IEW is unblocking (Cycle)
system.o3Cpu7.iew.dispatchedInsts            58223713                       # Number of instructions dispatched to IQ (Count)
system.o3Cpu7.iew.dispSquashedInsts              2236                       # Number of squashed instructions skipped by dispatch (Count)
system.o3Cpu7.iew.dispLoadInsts              11567324                       # Number of dispatched load instructions (Count)
system.o3Cpu7.iew.dispStoreInsts              1296724                       # Number of dispatched store instructions (Count)
system.o3Cpu7.iew.dispNonSpecInsts             938482                       # Number of dispatched non-speculative instructions (Count)
system.o3Cpu7.iew.iqFullEvents                 493334                       # Number of times the IQ has become full, causing a stall (Count)
system.o3Cpu7.iew.lsqFullEvents              13648133                       # Number of times the LSQ has become full, causing a stall (Count)
system.o3Cpu7.iew.memOrderViolationEvents       241098                       # Number of memory order violations (Count)
system.o3Cpu7.iew.predictedTakenIncorrect       130099                       # Number of branches that were predicted taken incorrectly (Count)
system.o3Cpu7.iew.predictedNotTakenIncorrect       210643                       # Number of branches that were predicted not taken incorrectly (Count)
system.o3Cpu7.iew.branchMispredicts            340742                       # Number of branch mispredicts detected at execute (Count)
system.o3Cpu7.iew.instsToCommit              46151622                       # Cumulative count of insts sent to commit (Count)
system.o3Cpu7.iew.writebackCount             46113080                       # Cumulative count of insts written-back (Count)
system.o3Cpu7.iew.producerInst               35259395                       # Number of instructions producing a value (Count)
system.o3Cpu7.iew.consumerInst               55005669                       # Number of instructions consuming a value (Count)
system.o3Cpu7.iew.wbRate                     0.124625                       # Insts written-back per cycle ((Count/Cycle))
system.o3Cpu7.iew.wbFanout                   0.641014                       # Average fanout of values written-back ((Count/Count))
system.o3Cpu7.interrupts.clk_domain.clock         3200                       # Clock period in ticks (Tick)
system.o3Cpu7.lsq0.forwLoads                     6879                       # Number of loads that had data forwarded from stores (Count)
system.o3Cpu7.lsq0.squashedLoads              5859726                       # Number of loads squashed (Count)
system.o3Cpu7.lsq0.ignoredResponses                 2                       # Number of memory responses ignored because the instruction is squashed (Count)
system.o3Cpu7.lsq0.memOrderViolation           241098                       # Number of memory ordering violations (Count)
system.o3Cpu7.lsq0.squashedStores              536618                       # Number of stores squashed (Count)
system.o3Cpu7.lsq0.rescheduledLoads                68                       # Number of loads that were rescheduled (Count)
system.o3Cpu7.lsq0.blockedByCache                   0                       # Number of times an access to memory failed due to the cache being blocked (Count)
system.o3Cpu7.lsq0.loadToUse::samples         5707587                       # Distribution of cycle latency between the first time a load is issued and its completion (Unspecified)
system.o3Cpu7.lsq0.loadToUse::mean          73.153131                       # Distribution of cycle latency between the first time a load is issued and its completion (Unspecified)
system.o3Cpu7.lsq0.loadToUse::stdev        256.194194                       # Distribution of cycle latency between the first time a load is issued and its completion (Unspecified)
system.o3Cpu7.lsq0.loadToUse::0-9             5009830     87.77%     87.77% # Distribution of cycle latency between the first time a load is issued and its completion (Unspecified)
system.o3Cpu7.lsq0.loadToUse::10-19            128879      2.26%     90.03% # Distribution of cycle latency between the first time a load is issued and its completion (Unspecified)
system.o3Cpu7.lsq0.loadToUse::20-29             70798      1.24%     91.27% # Distribution of cycle latency between the first time a load is issued and its completion (Unspecified)
system.o3Cpu7.lsq0.loadToUse::30-39              6044      0.11%     91.38% # Distribution of cycle latency between the first time a load is issued and its completion (Unspecified)
system.o3Cpu7.lsq0.loadToUse::40-49              3113      0.05%     91.43% # Distribution of cycle latency between the first time a load is issued and its completion (Unspecified)
system.o3Cpu7.lsq0.loadToUse::50-59               855      0.01%     91.45% # Distribution of cycle latency between the first time a load is issued and its completion (Unspecified)
system.o3Cpu7.lsq0.loadToUse::60-69               365      0.01%     91.46% # Distribution of cycle latency between the first time a load is issued and its completion (Unspecified)
system.o3Cpu7.lsq0.loadToUse::70-79               570      0.01%     91.47% # Distribution of cycle latency between the first time a load is issued and its completion (Unspecified)
system.o3Cpu7.lsq0.loadToUse::80-89               409      0.01%     91.47% # Distribution of cycle latency between the first time a load is issued and its completion (Unspecified)
system.o3Cpu7.lsq0.loadToUse::90-99               418      0.01%     91.48% # Distribution of cycle latency between the first time a load is issued and its completion (Unspecified)
system.o3Cpu7.lsq0.loadToUse::100-109             344      0.01%     91.49% # Distribution of cycle latency between the first time a load is issued and its completion (Unspecified)
system.o3Cpu7.lsq0.loadToUse::110-119             323      0.01%     91.49% # Distribution of cycle latency between the first time a load is issued and its completion (Unspecified)
system.o3Cpu7.lsq0.loadToUse::120-129             332      0.01%     91.50% # Distribution of cycle latency between the first time a load is issued and its completion (Unspecified)
system.o3Cpu7.lsq0.loadToUse::130-139             246      0.00%     91.50% # Distribution of cycle latency between the first time a load is issued and its completion (Unspecified)
system.o3Cpu7.lsq0.loadToUse::140-149             538      0.01%     91.51% # Distribution of cycle latency between the first time a load is issued and its completion (Unspecified)
system.o3Cpu7.lsq0.loadToUse::150-159             416      0.01%     91.52% # Distribution of cycle latency between the first time a load is issued and its completion (Unspecified)
system.o3Cpu7.lsq0.loadToUse::160-169             351      0.01%     91.52% # Distribution of cycle latency between the first time a load is issued and its completion (Unspecified)
system.o3Cpu7.lsq0.loadToUse::170-179             368      0.01%     91.53% # Distribution of cycle latency between the first time a load is issued and its completion (Unspecified)
system.o3Cpu7.lsq0.loadToUse::180-189             225      0.00%     91.53% # Distribution of cycle latency between the first time a load is issued and its completion (Unspecified)
system.o3Cpu7.lsq0.loadToUse::190-199             465      0.01%     91.54% # Distribution of cycle latency between the first time a load is issued and its completion (Unspecified)
system.o3Cpu7.lsq0.loadToUse::200-209             399      0.01%     91.55% # Distribution of cycle latency between the first time a load is issued and its completion (Unspecified)
system.o3Cpu7.lsq0.loadToUse::210-219             255      0.00%     91.55% # Distribution of cycle latency between the first time a load is issued and its completion (Unspecified)
system.o3Cpu7.lsq0.loadToUse::220-229             211      0.00%     91.56% # Distribution of cycle latency between the first time a load is issued and its completion (Unspecified)
system.o3Cpu7.lsq0.loadToUse::230-239             182      0.00%     91.56% # Distribution of cycle latency between the first time a load is issued and its completion (Unspecified)
system.o3Cpu7.lsq0.loadToUse::240-249             227      0.00%     91.57% # Distribution of cycle latency between the first time a load is issued and its completion (Unspecified)
system.o3Cpu7.lsq0.loadToUse::250-259             190      0.00%     91.57% # Distribution of cycle latency between the first time a load is issued and its completion (Unspecified)
system.o3Cpu7.lsq0.loadToUse::260-269             203      0.00%     91.57% # Distribution of cycle latency between the first time a load is issued and its completion (Unspecified)
system.o3Cpu7.lsq0.loadToUse::270-279             237      0.00%     91.58% # Distribution of cycle latency between the first time a load is issued and its completion (Unspecified)
system.o3Cpu7.lsq0.loadToUse::280-289             212      0.00%     91.58% # Distribution of cycle latency between the first time a load is issued and its completion (Unspecified)
system.o3Cpu7.lsq0.loadToUse::290-299             202      0.00%     91.58% # Distribution of cycle latency between the first time a load is issued and its completion (Unspecified)
system.o3Cpu7.lsq0.loadToUse::overflows        480380      8.42%    100.00% # Distribution of cycle latency between the first time a load is issued and its completion (Unspecified)
system.o3Cpu7.lsq0.loadToUse::min_value             2                       # Distribution of cycle latency between the first time a load is issued and its completion (Unspecified)
system.o3Cpu7.lsq0.loadToUse::max_value          5180                       # Distribution of cycle latency between the first time a load is issued and its completion (Unspecified)
system.o3Cpu7.lsq0.loadToUse::total           5707587                       # Distribution of cycle latency between the first time a load is issued and its completion (Unspecified)
system.o3Cpu7.mmu.dtb.rdAccesses              8499886                       # TLB accesses on read requests (Count)
system.o3Cpu7.mmu.dtb.wrAccesses               763051                       # TLB accesses on write requests (Count)
system.o3Cpu7.mmu.dtb.rdMisses                 112985                       # TLB misses on read requests (Count)
system.o3Cpu7.mmu.dtb.wrMisses                   2348                       # TLB misses on write requests (Count)
system.o3Cpu7.mmu.dtb.walker.power_state.pwrStateResidencyTicks::UNDEFINED  75016720200                       # Cumulative time (in ticks) in various power states (Tick)
system.o3Cpu7.mmu.itb.rdAccesses                    0                       # TLB accesses on read requests (Count)
system.o3Cpu7.mmu.itb.wrAccesses              7419485                       # TLB accesses on write requests (Count)
system.o3Cpu7.mmu.itb.rdMisses                      0                       # TLB misses on read requests (Count)
system.o3Cpu7.mmu.itb.wrMisses                    181                       # TLB misses on write requests (Count)
system.o3Cpu7.mmu.itb.walker.power_state.pwrStateResidencyTicks::UNDEFINED  75016720200                       # Cumulative time (in ticks) in various power states (Tick)
system.o3Cpu7.power_state.pwrStateResidencyTicks::OFF  75016720200                       # Cumulative time (in ticks) in various power states (Tick)
system.o3Cpu7.rename.squashCycles              573660                       # Number of cycles rename is squashing (Cycle)
system.o3Cpu7.rename.idleCycles               5811610                       # Number of cycles rename is idle (Cycle)
system.o3Cpu7.rename.blockCycles            290487965                       # Number of cycles rename is blocking (Cycle)
system.o3Cpu7.rename.serializeStallCycles       781001                       # count of cycles rename stalled for serializing inst (Cycle)
system.o3Cpu7.rename.runCycles               13632334                       # Number of cycles rename is running (Cycle)
system.o3Cpu7.rename.unblockCycles           58471581                       # Number of cycles rename is unblocking (Cycle)
system.o3Cpu7.rename.renamedInsts            60123069                       # Number of instructions processed by rename (Count)
system.o3Cpu7.rename.ROBFullEvents             398652                       # Number of times rename has blocked due to ROB full (Count)
system.o3Cpu7.rename.IQFullEvents            16525226                       # Number of times rename has blocked due to IQ full (Count)
system.o3Cpu7.rename.LQFullEvents            51036030                       # Number of times rename has blocked due to LQ full (Count)
system.o3Cpu7.rename.SQFullEvents              204407                       # Number of times rename has blocked due to SQ full (Count)
system.o3Cpu7.rename.renamedOperands        111111585                       # Number of destination operands rename has renamed (Count)
system.o3Cpu7.rename.lookups                213844133                       # Number of register rename lookups that rename has made (Count)
system.o3Cpu7.rename.intLookups              74972761                       # Number of integer rename lookups (Count)
system.o3Cpu7.rename.fpLookups                2316928                       # Number of floating rename lookups (Count)
system.o3Cpu7.rename.committedMaps           50943446                       # Number of HB maps that are committed (Count)
system.o3Cpu7.rename.undoneMaps              60168037                       # Number of HB maps that are undone due to squashing (Count)
system.o3Cpu7.rename.serializing                 2748                       # count of serializing insts renamed (Count)
system.o3Cpu7.rename.tempSerializing             2776                       # count of temporary serializing insts renamed (Count)
system.o3Cpu7.rename.skidInsts               14034619                       # count of insts added to the skid buffer (Count)
system.o3Cpu7.rob.reads                     416233782                       # The number of ROB reads (Count)
system.o3Cpu7.rob.writes                    124744212                       # The number of ROB writes (Count)
system.o3Cpu7.thread_0.numInsts              16362365                       # Number of Instructions committed (Count)
system.o3Cpu7.thread_0.numOps                28291851                       # Number of Ops committed (Count)
system.o3Cpu7.thread_0.numMemRefs                   0                       # Number of Memory References (Count)
system.pc.bad_addr.power_state.pwrStateResidencyTicks::UNDEFINED  75016720200                       # Cumulative time (in ticks) in various power states (Tick)
system.pc.com_1.power_state.pwrStateResidencyTicks::UNDEFINED  75016720200                       # Cumulative time (in ticks) in various power states (Tick)
system.pc.default_bus.power_state.pwrStateResidencyTicks::UNDEFINED  75016720200                       # Cumulative time (in ticks) in various power states (Tick)
system.pc.empty_isa.power_state.pwrStateResidencyTicks::UNDEFINED  75016720200                       # Cumulative time (in ticks) in various power states (Tick)
system.pc.fake_com_2.power_state.pwrStateResidencyTicks::UNDEFINED  75016720200                       # Cumulative time (in ticks) in various power states (Tick)
system.pc.fake_com_3.power_state.pwrStateResidencyTicks::UNDEFINED  75016720200                       # Cumulative time (in ticks) in various power states (Tick)
system.pc.fake_com_4.power_state.pwrStateResidencyTicks::UNDEFINED  75016720200                       # Cumulative time (in ticks) in various power states (Tick)
system.pc.fake_floppy.power_state.pwrStateResidencyTicks::UNDEFINED  75016720200                       # Cumulative time (in ticks) in various power states (Tick)
system.pc.pci_host.power_state.pwrStateResidencyTicks::UNDEFINED  75016720200                       # Cumulative time (in ticks) in various power states (Tick)
system.pc.south_bridge.cmos.power_state.pwrStateResidencyTicks::UNDEFINED  75016720200                       # Cumulative time (in ticks) in various power states (Tick)
system.pc.south_bridge.dma1.power_state.pwrStateResidencyTicks::UNDEFINED  75016720200                       # Cumulative time (in ticks) in various power states (Tick)
system.pc.south_bridge.ide.disks0.IdeDisk.dmaReadFullPages            0                       # Number of full page size DMA reads (not PRD). (Count)
system.pc.south_bridge.ide.disks0.IdeDisk.dmaReadBytes            0                       # Number of bytes transfered via DMA reads (not PRD). (Byte)
system.pc.south_bridge.ide.disks0.IdeDisk.dmaReadTxs            0                       # Number of DMA read transactions (not PRD). (Count)
system.pc.south_bridge.ide.disks0.IdeDisk.dmaWriteFullPages            0                       # Number of full page size DMA writes. (Count)
system.pc.south_bridge.ide.disks0.IdeDisk.dmaWriteBytes            0                       # Number of bytes transfered via DMA writes. (Byte)
system.pc.south_bridge.ide.disks0.IdeDisk.dmaWriteTxs            0                       # Number of DMA write transactions. (Count)
system.pc.south_bridge.ide.disks1.IdeDisk.dmaReadFullPages            0                       # Number of full page size DMA reads (not PRD). (Count)
system.pc.south_bridge.ide.disks1.IdeDisk.dmaReadBytes            0                       # Number of bytes transfered via DMA reads (not PRD). (Byte)
system.pc.south_bridge.ide.disks1.IdeDisk.dmaReadTxs            0                       # Number of DMA read transactions (not PRD). (Count)
system.pc.south_bridge.ide.disks1.IdeDisk.dmaWriteFullPages            0                       # Number of full page size DMA writes. (Count)
system.pc.south_bridge.ide.disks1.IdeDisk.dmaWriteBytes            0                       # Number of bytes transfered via DMA writes. (Byte)
system.pc.south_bridge.ide.disks1.IdeDisk.dmaWriteTxs            0                       # Number of DMA write transactions. (Count)
system.pc.south_bridge.ide.power_state.pwrStateResidencyTicks::UNDEFINED  75016720200                       # Cumulative time (in ticks) in various power states (Tick)
system.pc.south_bridge.io_apic.power_state.pwrStateResidencyTicks::UNDEFINED  75016720200                       # Cumulative time (in ticks) in various power states (Tick)
system.pc.south_bridge.keyboard.power_state.pwrStateResidencyTicks::UNDEFINED  75016720200                       # Cumulative time (in ticks) in various power states (Tick)
system.pc.south_bridge.pic1.power_state.pwrStateResidencyTicks::UNDEFINED  75016720200                       # Cumulative time (in ticks) in various power states (Tick)
system.pc.south_bridge.pic2.power_state.pwrStateResidencyTicks::UNDEFINED  75016720200                       # Cumulative time (in ticks) in various power states (Tick)
system.pc.south_bridge.pit.power_state.pwrStateResidencyTicks::UNDEFINED  75016720200                       # Cumulative time (in ticks) in various power states (Tick)
system.pc.south_bridge.speaker.power_state.pwrStateResidencyTicks::UNDEFINED  75016720200                       # Cumulative time (in ticks) in various power states (Tick)
system.workload.inst.arm                            0                       # number of arm instructions executed (Count)
system.workload.inst.quiesce                        0                       # number of quiesce instructions executed (Count)

---------- End Simulation Statistics   ----------
