
---------- Begin Simulation Statistics ----------
simSeconds                                   0.040461                       # Number of seconds simulated (Second)
simTicks                                  40460616360                       # Number of ticks simulated (Tick)
finalTick                                264593147383000                       # Number of ticks from beginning of simulation (restored from checkpoints and never reset) (Tick)
simFreq                                  1000000000000                       # The number of ticks per simulated second ((Tick/Second))
hostSeconds                                  12846.07                       # Real time elapsed on the host (Second)
hostTickRate                                  3149649                       # The number of ticks simulated per host second (ticks/s) ((Tick/Second))
hostMemory                                   20010600                       # Number of bytes of host memory used (Byte)
simInsts                                    347120128                       # Number of instructions simulated (Count)
simOps                                      582062157                       # Number of ops (including micro ops) simulated (Count)
hostInstRate                                    27022                       # Simulator instruction rate (inst/s) ((Count/Second))
hostOpRate                                      45311                       # Simulator op (including micro ops) rate (op/s) ((Count/Second))
system.caches.delayHistogram::bucket_size          256                       # delay histogram for all message (Unspecified)
system.caches.delayHistogram::max_bucket         2559                       # delay histogram for all message (Unspecified)
system.caches.delayHistogram::samples        26141343                       # delay histogram for all message (Unspecified)
system.caches.delayHistogram::mean           0.259911                       # delay histogram for all message (Unspecified)
system.caches.delayHistogram::stdev          1.617071                       # delay histogram for all message (Unspecified)
system.caches.delayHistogram             |    26141329    100.00%    100.00% |           8      0.00%    100.00% |           3      0.00%    100.00% |           0      0.00%    100.00% |           1      0.00%    100.00% |           1      0.00%    100.00% |           0      0.00%    100.00% |           1      0.00%    100.00% |           0      0.00%    100.00% |           0      0.00%    100.00% # delay histogram for all message (Unspecified)
system.caches.delayHistogram::total          26141343                       # delay histogram for all message (Unspecified)
system.caches.m_outstandReqHistSeqr::bucket_size            2                       (Unspecified)
system.caches.m_outstandReqHistSeqr::max_bucket           19                       (Unspecified)
system.caches.m_outstandReqHistSeqr::samples    198782390                       (Unspecified)
system.caches.m_outstandReqHistSeqr::mean     4.627526                       (Unspecified)
system.caches.m_outstandReqHistSeqr::gmean     3.035361                       (Unspecified)
system.caches.m_outstandReqHistSeqr::stdev     4.300576                       (Unspecified)
system.caches.m_outstandReqHistSeqr      |    57678269     29.02%     29.02% |    54102237     27.22%     56.23% |    27913727     14.04%     70.27% |    14948364      7.52%     77.79% |    12015380      6.04%     83.84% |    10274348      5.17%     89.01% |     8539541      4.30%     93.30% |     7266189      3.66%     96.96% |     6044335      3.04%    100.00% |           0      0.00%    100.00% (Unspecified)
system.caches.m_outstandReqHistSeqr::total    198782390                       (Unspecified)
system.caches.m_latencyHistSeqr::bucket_size         1024                       (Unspecified)
system.caches.m_latencyHistSeqr::max_bucket        10239                       (Unspecified)
system.caches.m_latencyHistSeqr::samples    198924895                       (Unspecified)
system.caches.m_latencyHistSeqr::mean       14.493892                       (Unspecified)
system.caches.m_latencyHistSeqr::gmean       1.133484                       (Unspecified)
system.caches.m_latencyHistSeqr::stdev     113.968914                       (Unspecified)
system.caches.m_latencyHistSeqr          |   198321880     99.70%     99.70% |      537832      0.27%     99.97% |       62350      0.03%    100.00% |        2706      0.00%    100.00% |         124      0.00%    100.00% |           3      0.00%    100.00% |           0      0.00%    100.00% |           0      0.00%    100.00% |           0      0.00%    100.00% |           0      0.00%    100.00% (Unspecified)
system.caches.m_latencyHistSeqr::total      198924895                       (Unspecified)
system.caches.m_hitLatencyHistSeqr::bucket_size          512                       (Unspecified)
system.caches.m_hitLatencyHistSeqr::max_bucket         5119                       (Unspecified)
system.caches.m_hitLatencyHistSeqr::samples    194667628                       (Unspecified)
system.caches.m_hitLatencyHistSeqr::mean     1.002928                       (Unspecified)
system.caches.m_hitLatencyHistSeqr::gmean     1.001485                       (Unspecified)
system.caches.m_hitLatencyHistSeqr::stdev     0.849002                       (Unspecified)
system.caches.m_hitLatencyHistSeqr       |   194667484    100.00%    100.00% |         110      0.00%    100.00% |          22      0.00%    100.00% |          11      0.00%    100.00% |           0      0.00%    100.00% |           0      0.00%    100.00% |           1      0.00%    100.00% |           0      0.00%    100.00% |           0      0.00%    100.00% |           0      0.00%    100.00% (Unspecified)
system.caches.m_hitLatencyHistSeqr::total    194667628                       (Unspecified)
system.caches.m_missLatencyHistSeqr::bucket_size         1024                       (Unspecified)
system.caches.m_missLatencyHistSeqr::max_bucket        10239                       (Unspecified)
system.caches.m_missLatencyHistSeqr::samples      4257267                       (Unspecified)
system.caches.m_missLatencyHistSeqr::mean   631.381190                       (Unspecified)
system.caches.m_missLatencyHistSeqr::gmean   325.956352                       (Unspecified)
system.caches.m_missLatencyHistSeqr::stdev   466.919919                       (Unspecified)
system.caches.m_missLatencyHistSeqr      |     3654286     85.84%     85.84% |      537799     12.63%     98.47% |       62350      1.46%     99.93% |        2705      0.06%    100.00% |         124      0.00%    100.00% |           3      0.00%    100.00% |           0      0.00%    100.00% |           0      0.00%    100.00% |           0      0.00%    100.00% |           0      0.00%    100.00% (Unspecified)
system.caches.m_missLatencyHistSeqr::total      4257267                       (Unspecified)
system.caches.delayVCHist.vnet_0::bucket_size          256                       # delay histogram for vnet_0 (Unspecified)
system.caches.delayVCHist.vnet_0::max_bucket         2559                       # delay histogram for vnet_0 (Unspecified)
system.caches.delayVCHist.vnet_0::samples     11171941                       # delay histogram for vnet_0 (Unspecified)
system.caches.delayVCHist.vnet_0::mean       0.478638                       # delay histogram for vnet_0 (Unspecified)
system.caches.delayVCHist.vnet_0::stdev      2.159152                       # delay histogram for vnet_0 (Unspecified)
system.caches.delayVCHist.vnet_0         |    11171927    100.00%    100.00% |           8      0.00%    100.00% |           3      0.00%    100.00% |           0      0.00%    100.00% |           1      0.00%    100.00% |           1      0.00%    100.00% |           0      0.00%    100.00% |           1      0.00%    100.00% |           0      0.00%    100.00% |           0      0.00%    100.00% # delay histogram for vnet_0 (Unspecified)
system.caches.delayVCHist.vnet_0::total      11171941                       # delay histogram for vnet_0 (Unspecified)
system.caches.delayVCHist.vnet_1::bucket_size           16                       # delay histogram for vnet_1 (Unspecified)
system.caches.delayVCHist.vnet_1::max_bucket          159                       # delay histogram for vnet_1 (Unspecified)
system.caches.delayVCHist.vnet_1::samples     14601297                       # delay histogram for vnet_1 (Unspecified)
system.caches.delayVCHist.vnet_1::mean       0.099092                       # delay histogram for vnet_1 (Unspecified)
system.caches.delayVCHist.vnet_1::stdev      1.024891                       # delay histogram for vnet_1 (Unspecified)
system.caches.delayVCHist.vnet_1         |    14589401     99.92%     99.92% |        9765      0.07%     99.99% |        1668      0.01%    100.00% |         336      0.00%    100.00% |          88      0.00%    100.00% |          27      0.00%    100.00% |           9      0.00%    100.00% |           3      0.00%    100.00% |           0      0.00%    100.00% |           0      0.00%    100.00% # delay histogram for vnet_1 (Unspecified)
system.caches.delayVCHist.vnet_1::total      14601297                       # delay histogram for vnet_1 (Unspecified)
system.caches.delayVCHist.vnet_2::bucket_size            1                       # delay histogram for vnet_2 (Unspecified)
system.caches.delayVCHist.vnet_2::max_bucket            9                       # delay histogram for vnet_2 (Unspecified)
system.caches.delayVCHist.vnet_2::samples       368105                       # delay histogram for vnet_2 (Unspecified)
system.caches.delayVCHist.vnet_2::mean       0.000630                       # delay histogram for vnet_2 (Unspecified)
system.caches.delayVCHist.vnet_2::stdev      0.036702                       # delay histogram for vnet_2 (Unspecified)
system.caches.delayVCHist.vnet_2         |      367993     99.97%     99.97% |           0      0.00%     99.97% |         108      0.03%    100.00% |           0      0.00%    100.00% |           4      0.00%    100.00% |           0      0.00%    100.00% |           0      0.00%    100.00% |           0      0.00%    100.00% |           0      0.00%    100.00% |           0      0.00%    100.00% # delay histogram for vnet_2 (Unspecified)
system.caches.delayVCHist.vnet_2::total        368105                       # delay histogram for vnet_2 (Unspecified)
system.caches.L1Cache_Controller.Load    |    13762777     12.77%     12.77% |    14251573     13.22%     25.99% |    13370050     12.40%     38.40% |    13335245     12.37%     50.77% |    12917730     11.98%     62.75% |    12996411     12.06%     74.81% |    13602435     12.62%     87.43% |    13547048     12.57%    100.00% (Unspecified)
system.caches.L1Cache_Controller.Load::total    107783269                       (Unspecified)
system.caches.L1Cache_Controller.Ifetch  |     9614470     12.47%     12.47% |     9635231     12.50%     24.97% |     9713110     12.60%     37.57% |     9586436     12.43%     50.00% |     9728988     12.62%     62.62% |     9636747     12.50%     75.12% |     9610297     12.47%     87.59% |     9569839     12.41%    100.00% (Unspecified)
system.caches.L1Cache_Controller.Ifetch::total     77095118                       (Unspecified)
system.caches.L1Cache_Controller.Store   |     1717498     12.23%     12.23% |     1712449     12.19%     24.42% |     1940208     13.81%     38.23% |     1706996     12.15%     50.38% |     1818245     12.94%     63.33% |     1741390     12.40%     75.73% |     1704737     12.14%     87.86% |     1705001     12.14%    100.00% (Unspecified)
system.caches.L1Cache_Controller.Store::total     14046524                       (Unspecified)
system.caches.L1Cache_Controller.Inv     |       35257     11.88%     11.88% |       48449     16.32%     28.20% |       43642     14.70%     42.91% |       34140     11.50%     54.41% |       33394     11.25%     65.66% |       31725     10.69%     76.35% |       34901     11.76%     88.11% |       35279     11.89%    100.00% (Unspecified)
system.caches.L1Cache_Controller.Inv::total       296787                       (Unspecified)
system.caches.L1Cache_Controller.L1_Replacement |      515024     12.62%     12.62% |      502751     12.32%     24.94% |      532692     13.06%     38.00% |      504958     12.38%     50.38% |      504257     12.36%     62.74% |      513053     12.57%     75.31% |      503703     12.35%     87.65% |      503709     12.35%    100.00% (Unspecified)
system.caches.L1Cache_Controller.L1_Replacement::total      4080147                       (Unspecified)
system.caches.L1Cache_Controller.Fwd_GETX |         851     12.09%     12.09% |         844     11.99%     24.09% |        1072     15.23%     39.32% |         844     11.99%     51.31% |         881     12.52%     63.83% |         851     12.09%     75.93% |         851     12.09%     88.02% |         843     11.98%    100.00% (Unspecified)
system.caches.L1Cache_Controller.Fwd_GETX::total         7037                       (Unspecified)
system.caches.L1Cache_Controller.Fwd_GETS |        7719     12.01%     12.01% |        5622      8.75%     20.75% |       13932     21.67%     42.43% |        7333     11.41%     53.84% |        7592     11.81%     65.65% |        7774     12.09%     77.74% |        7315     11.38%     89.12% |        6994     10.88%    100.00% (Unspecified)
system.caches.L1Cache_Controller.Fwd_GETS::total        64281                       (Unspecified)
system.caches.L1Cache_Controller.Data    |         333     11.24%     11.24% |         467     15.77%     27.01% |         116      3.92%     30.93% |         352     11.88%     42.81% |         383     12.93%     55.74% |         397     13.40%     69.14% |         456     15.40%     84.54% |         458     15.46%    100.00% (Unspecified)
system.caches.L1Cache_Controller.Data::total         2962                       (Unspecified)
system.caches.L1Cache_Controller.Data_Exclusive |      399926     12.50%     12.50% |      389361     12.17%     24.66% |      403034     12.59%     37.26% |      400336     12.51%     49.77% |      400667     12.52%     62.29% |      407431     12.73%     75.02% |      400109     12.50%     87.52% |      399413     12.48%    100.00% (Unspecified)
system.caches.L1Cache_Controller.Data_Exclusive::total      3200277                       (Unspecified)
system.caches.L1Cache_Controller.DataS_fromL1 |        7490     11.65%     11.65% |       15459     24.05%     35.70% |        7359     11.45%     47.15% |        6532     10.16%     57.31% |        6612     10.29%     67.60% |        7992     12.43%     80.03% |        6520     10.14%     90.17% |        6317      9.83%    100.00% (Unspecified)
system.caches.L1Cache_Controller.DataS_fromL1::total        64281                       (Unspecified)
system.caches.L1Cache_Controller.Data_all_Acks |      119013     12.19%     12.19% |      119642     12.25%     24.44% |      146770     15.03%     39.46% |      118261     12.11%     51.57% |      118469     12.13%     63.70% |      118199     12.10%     75.80% |      117516     12.03%     87.84% |      118802     12.16%    100.00% (Unspecified)
system.caches.L1Cache_Controller.Data_all_Acks::total       976672                       (Unspecified)
system.caches.L1Cache_Controller.Ack     |        2897     19.27%     19.27% |        1871     12.45%     31.72% |        1702     11.32%     43.05% |        1444      9.61%     52.65% |        1603     10.67%     63.32% |        2561     17.04%     80.36% |        1451      9.65%     90.01% |        1501      9.99%    100.00% (Unspecified)
system.caches.L1Cache_Controller.Ack::total        15030                       (Unspecified)
system.caches.L1Cache_Controller.Ack_all |        2144     13.37%     13.37% |        2173     13.55%     26.92% |        1516      9.45%     36.37% |        1734     10.81%     47.18% |        1888     11.77%     58.96% |        2873     17.91%     76.87% |        1830     11.41%     88.28% |        1879     11.72%    100.00% (Unspecified)
system.caches.L1Cache_Controller.Ack_all::total        16037                       (Unspecified)
system.caches.L1Cache_Controller.WB_Ack  |      423538     12.74%     12.74% |      396438     11.93%     24.67% |      430313     12.94%     37.61% |      412772     12.42%     50.03% |      413894     12.45%     62.48% |      424689     12.78%     75.26% |      411849     12.39%     87.65% |      410682     12.35%    100.00% (Unspecified)
system.caches.L1Cache_Controller.WB_Ack::total      3324175                       (Unspecified)
system.caches.L1Cache_Controller.NP.Load |      478327     12.48%     12.48% |      477160     12.45%     24.93% |      480371     12.53%     37.46% |      478525     12.48%     49.94% |      478055     12.47%     62.41% |      485928     12.68%     75.09% |      477362     12.45%     87.54% |      477543     12.46%    100.00% (Unspecified)
system.caches.L1Cache_Controller.NP.Load::total      3833271                       (Unspecified)
system.caches.L1Cache_Controller.NP.Ifetch |        1876     10.58%     10.58% |        1715      9.68%     20.26% |        6169     34.80%     55.06% |        1397      7.88%     62.94% |        2157     12.17%     75.11% |        1409      7.95%     83.06% |        1430      8.07%     91.13% |        1573      8.87%    100.00% (Unspecified)
system.caches.L1Cache_Controller.NP.Ifetch::total        17726                       (Unspecified)
system.caches.L1Cache_Controller.NP.Store |       35411     11.56%     11.56% |       35251     11.51%     23.08% |       58668     19.16%     42.24% |       35097     11.46%     53.70% |       35181     11.49%     65.19% |       36235     11.83%     77.02% |       35180     11.49%     88.51% |       35169     11.49%    100.00% (Unspecified)
system.caches.L1Cache_Controller.NP.Store::total       306192                       (Unspecified)
system.caches.L1Cache_Controller.NP.Inv  |       10326     12.75%     12.75% |       13763     16.99%     29.75% |       11755     14.52%     44.26% |        8881     10.97%     55.23% |        9160     11.31%     66.54% |        9828     12.14%     78.67% |        8806     10.87%     89.55% |        8465     10.45%    100.00% (Unspecified)
system.caches.L1Cache_Controller.NP.Inv::total        80984                       (Unspecified)
system.caches.L1Cache_Controller.I.Load  |        7829     12.41%     12.41% |        7824     12.41%     24.82% |        8742     13.86%     38.68% |        7723     12.25%     50.93% |        7648     12.13%     63.06% |        7682     12.18%     75.24% |        7846     12.44%     87.68% |        7769     12.32%    100.00% (Unspecified)
system.caches.L1Cache_Controller.I.Load::total        63063                       (Unspecified)
system.caches.L1Cache_Controller.I.Ifetch |        2445     14.14%     14.14% |        2182     12.62%     26.75% |        2441     14.11%     40.86% |        1936     11.19%     52.06% |        2228     12.88%     64.94% |        1950     11.27%     76.21% |        1970     11.39%     87.60% |        2144     12.40%    100.00% (Unspecified)
system.caches.L1Cache_Controller.I.Ifetch::total        17296                       (Unspecified)
system.caches.L1Cache_Controller.I.Store |         874     13.13%     13.13% |         799     12.00%     25.14% |         892     13.40%     38.54% |         806     12.11%     50.65% |         863     12.97%     63.61% |         817     12.27%     75.89% |         813     12.21%     88.10% |         792     11.90%    100.00% (Unspecified)
system.caches.L1Cache_Controller.I.Store::total         6656                       (Unspecified)
system.caches.L1Cache_Controller.I.L1_Replacement |       13556     10.68%     10.68% |       23673     18.66%     29.34% |       19485     15.36%     44.70% |       14658     11.55%     56.25% |       13125     10.34%     66.59% |       11208      8.83%     75.42% |       15315     12.07%     87.49% |       15868     12.51%    100.00% (Unspecified)
system.caches.L1Cache_Controller.I.L1_Replacement::total       126888                       (Unspecified)
system.caches.L1Cache_Controller.S.Load  |     8647583     13.10%     13.10% |     9216696     13.97%     27.07% |     7954507     12.05%     39.13% |     8125368     12.31%     51.44% |     7591103     11.50%     62.94% |     7715665     11.69%     74.63% |     8394034     12.72%     87.35% |     8345303     12.65%    100.00% (Unspecified)
system.caches.L1Cache_Controller.S.Load::total     65990259                       (Unspecified)
system.caches.L1Cache_Controller.S.Ifetch |     9610149     12.47%     12.47% |     9631334     12.50%     24.97% |     9704499     12.59%     37.56% |     9583103     12.44%     50.00% |     9724603     12.62%     62.62% |     9633388     12.50%     75.12% |     9606897     12.47%     87.59% |     9566122     12.41%    100.00% (Unspecified)
system.caches.L1Cache_Controller.S.Ifetch::total     77060095                       (Unspecified)
system.caches.L1Cache_Controller.S.Store |        1811     13.85%     13.85% |        1707     13.05%     26.90% |        1400     10.71%     37.61% |        1382     10.57%     48.17% |        1505     11.51%     59.68% |        2476     18.93%     78.61% |        1375     10.51%     89.13% |        1422     10.87%    100.00% (Unspecified)
system.caches.L1Cache_Controller.S.Store::total        13078                       (Unspecified)
system.caches.L1Cache_Controller.S.Inv   |       11679     11.65%     11.65% |       14206     14.17%     25.82% |       17632     17.59%     43.41% |       11138     11.11%     54.52% |       11656     11.63%     66.14% |       11134     11.11%     77.25% |       11326     11.30%     88.55% |       11481     11.45%    100.00% (Unspecified)
system.caches.L1Cache_Controller.S.Inv::total       100252                       (Unspecified)
system.caches.L1Cache_Controller.S.L1_Replacement |       77930     12.39%     12.39% |       82639     13.14%     25.52% |       82893     13.18%     38.70% |       77528     12.32%     51.03% |       77238     12.28%     63.30% |       77156     12.26%     75.57% |       76539     12.17%     87.73% |       77159     12.27%    100.00% (Unspecified)
system.caches.L1Cache_Controller.S.L1_Replacement::total       629082                       (Unspecified)
system.caches.L1Cache_Controller.E.Load  |     3901010     12.17%     12.17% |     3801142     11.86%     24.04% |     4178875     13.04%     37.08% |     4029090     12.57%     49.65% |     4053359     12.65%     62.30% |     4040072     12.61%     74.91% |     4027786     12.57%     87.48% |     4012939     12.52%    100.00% (Unspecified)
system.caches.L1Cache_Controller.E.Load::total     32044273                       (Unspecified)
system.caches.L1Cache_Controller.E.Store |       29850     12.04%     12.04% |       29773     12.01%     24.04% |       32572     13.13%     37.18% |       29700     11.98%     49.15% |       29880     12.05%     61.20% |       36876     14.87%     76.07% |       29661     11.96%     88.03% |       29680     11.97%    100.00% (Unspecified)
system.caches.L1Cache_Controller.E.Store::total       247992                       (Unspecified)
system.caches.L1Cache_Controller.E.Inv   |       10126     10.00%     10.00% |       19061     18.82%     28.82% |       12473     12.32%     41.14% |       12747     12.59%     53.72% |       11111     10.97%     64.69% |        9146      9.03%     73.72% |       12850     12.69%     86.41% |       13761     13.59%    100.00% (Unspecified)
system.caches.L1Cache_Controller.E.Inv::total       101275                       (Unspecified)
system.caches.L1Cache_Controller.E.L1_Replacement |      347614     12.48%     12.48% |      333892     11.99%     24.47% |      348759     12.52%     36.99% |      350697     12.59%     49.59% |      351297     12.61%     62.20% |      353931     12.71%     74.91% |      350244     12.58%     87.49% |      348507     12.51%    100.00% (Unspecified)
system.caches.L1Cache_Controller.E.L1_Replacement::total      2784941                       (Unspecified)
system.caches.L1Cache_Controller.E.Fwd_GETX |          10     14.08%     14.08% |          10     14.08%     28.17% |           6      8.45%     36.62% |           8     11.27%     47.89% |          11     15.49%     63.38% |           8     11.27%     74.65% |           8     11.27%     85.92% |          10     14.08%    100.00% (Unspecified)
system.caches.L1Cache_Controller.E.Fwd_GETX::total           71                       (Unspecified)
system.caches.L1Cache_Controller.E.Fwd_GETS |        5207     12.72%     12.72% |        3732      9.12%     21.84% |        5290     12.93%     34.77% |        5389     13.17%     47.94% |        5439     13.29%     61.23% |        5340     13.05%     74.28% |        5329     13.02%     87.30% |        5195     12.70%    100.00% (Unspecified)
system.caches.L1Cache_Controller.E.Fwd_GETS::total        40921                       (Unspecified)
system.caches.L1Cache_Controller.M.Load  |      728028     12.44%     12.44% |      748751     12.79%     25.23% |      747555     12.77%     38.01% |      694539     11.87%     49.87% |      787565     13.46%     63.33% |      747064     12.77%     76.10% |      695407     11.88%     87.98% |      703494     12.02%    100.00% (Unspecified)
system.caches.L1Cache_Controller.M.Load::total      5852403                       (Unspecified)
system.caches.L1Cache_Controller.M.Store |     1649552     12.24%     12.24% |     1644919     12.21%     24.45% |     1846676     13.71%     38.16% |     1640011     12.17%     50.33% |     1750816     13.00%     63.33% |     1664986     12.36%     75.69% |     1637708     12.16%     87.84% |     1637938     12.16%    100.00% (Unspecified)
system.caches.L1Cache_Controller.M.Store::total     13472606                       (Unspecified)
system.caches.L1Cache_Controller.M.Inv   |        3126     21.93%     21.93% |        1416      9.93%     31.86% |        1780     12.49%     44.34% |        1371      9.62%     53.96% |        1465     10.28%     64.24% |        1615     11.33%     75.56% |        1915     13.43%     88.99% |        1569     11.01%    100.00% (Unspecified)
system.caches.L1Cache_Controller.M.Inv::total        14257                       (Unspecified)
system.caches.L1Cache_Controller.M.L1_Replacement |       75924     14.08%     14.08% |       62546     11.60%     25.68% |       81554     15.12%     40.80% |       62075     11.51%     52.31% |       62597     11.61%     63.92% |       70758     13.12%     77.05% |       61605     11.42%     88.47% |       62175     11.53%    100.00% (Unspecified)
system.caches.L1Cache_Controller.M.L1_Replacement::total       539234                       (Unspecified)
system.caches.L1Cache_Controller.M.Fwd_GETX |         841     12.07%     12.07% |         834     11.97%     24.05% |        1066     15.30%     39.35% |         836     12.00%     51.35% |         870     12.49%     63.84% |         843     12.10%     75.94% |         843     12.10%     88.04% |         833     11.96%    100.00% (Unspecified)
system.caches.L1Cache_Controller.M.Fwd_GETX::total         6966                       (Unspecified)
system.caches.L1Cache_Controller.M.Fwd_GETS |        2512     10.75%     10.75% |        1890      8.09%     18.84% |        8642     36.99%     55.84% |        1944      8.32%     64.16% |        2153      9.22%     73.38% |        2434     10.42%     83.80% |        1986      8.50%     92.30% |        1799      7.70%    100.00% (Unspecified)
system.caches.L1Cache_Controller.M.Fwd_GETS::total        23360                       (Unspecified)
system.caches.L1Cache_Controller.IS.Inv  |           0      0.00%      0.00% |           1      7.14%      7.14% |           2     14.29%     21.43% |           3     21.43%     42.86% |           2     14.29%     57.14% |           2     14.29%     71.43% |           2     14.29%     85.71% |           2     14.29%    100.00% (Unspecified)
system.caches.L1Cache_Controller.IS.Inv::total           14                       (Unspecified)
system.caches.L1Cache_Controller.IS.L1_Replacement |           0      0.00%      0.00% |           1     50.00%     50.00% |           1     50.00%    100.00% |           0      0.00%    100.00% |           0      0.00%    100.00% |           0      0.00%    100.00% |           0      0.00%    100.00% |           0      0.00%    100.00% (Unspecified)
system.caches.L1Cache_Controller.IS.L1_Replacement::total            2                       (Unspecified)
system.caches.L1Cache_Controller.IS.Data_Exclusive |      399926     12.50%     12.50% |      389361     12.17%     24.66% |      403034     12.59%     37.26% |      400336     12.51%     49.77% |      400667     12.52%     62.29% |      407431     12.73%     75.02% |      400109     12.50%     87.52% |      399413     12.48%    100.00% (Unspecified)
system.caches.L1Cache_Controller.IS.Data_Exclusive::total      3200277                       (Unspecified)
system.caches.L1Cache_Controller.IS.DataS_fromL1 |        7490     11.65%     11.65% |       15459     24.05%     35.70% |        7359     11.45%     47.15% |        6532     10.16%     57.31% |        6612     10.29%     67.60% |        7992     12.43%     80.03% |        6520     10.14%     90.17% |        6317      9.83%    100.00% (Unspecified)
system.caches.L1Cache_Controller.IS.DataS_fromL1::total        64281                       (Unspecified)
system.caches.L1Cache_Controller.IS.Data_all_Acks |       83061     12.46%     12.46% |       84057     12.61%     25.06% |       87324     13.10%     38.16% |       82707     12.40%     50.56% |       82806     12.42%     62.98% |       81542     12.23%     75.21% |       81976     12.29%     87.51% |       83296     12.49%    100.00% (Unspecified)
system.caches.L1Cache_Controller.IS.Data_all_Acks::total       666769                       (Unspecified)
system.caches.L1Cache_Controller.IM.Data |         333     11.24%     11.24% |         467     15.77%     27.01% |         116      3.92%     30.93% |         352     11.88%     42.81% |         383     12.93%     55.74% |         397     13.40%     69.14% |         456     15.40%     84.54% |         458     15.46%    100.00% (Unspecified)
system.caches.L1Cache_Controller.IM.Data::total         2962                       (Unspecified)
system.caches.L1Cache_Controller.IM.Data_all_Acks |       35952     11.60%     11.60% |       35584     11.48%     23.08% |       59444     19.18%     42.27% |       35551     11.47%     53.74% |       35661     11.51%     65.25% |       36655     11.83%     77.08% |       35538     11.47%     88.54% |       35504     11.46%    100.00% (Unspecified)
system.caches.L1Cache_Controller.IM.Data_all_Acks::total       309889                       (Unspecified)
system.caches.L1Cache_Controller.SM.Inv  |           0      0.00%      0.00% |           1     33.33%     33.33% |           0      0.00%     33.33% |           0      0.00%     33.33% |           0      0.00%     33.33% |           0      0.00%     33.33% |           1     33.33%     66.67% |           1     33.33%    100.00% (Unspecified)
system.caches.L1Cache_Controller.SM.Inv::total            3                       (Unspecified)
system.caches.L1Cache_Controller.SM.Ack  |        2897     19.27%     19.27% |        1871     12.45%     31.72% |        1702     11.32%     43.05% |        1444      9.61%     52.65% |        1603     10.67%     63.32% |        2561     17.04%     80.36% |        1451      9.65%     90.01% |        1501      9.99%    100.00% (Unspecified)
system.caches.L1Cache_Controller.SM.Ack::total        15030                       (Unspecified)
system.caches.L1Cache_Controller.SM.Ack_all |        2144     13.37%     13.37% |        2173     13.55%     26.92% |        1516      9.45%     36.37% |        1734     10.81%     47.18% |        1888     11.77%     58.96% |        2873     17.91%     76.87% |        1830     11.41%     88.28% |        1879     11.72%    100.00% (Unspecified)
system.caches.L1Cache_Controller.SM.Ack_all::total        16037                       (Unspecified)
system.caches.L1Cache_Controller.IS_I.Data_all_Acks |           0      0.00%      0.00% |           1      7.14%      7.14% |           2     14.29%     21.43% |           3     21.43%     42.86% |           2     14.29%     57.14% |           2     14.29%     71.43% |           2     14.29%     85.71% |           2     14.29%    100.00% (Unspecified)
system.caches.L1Cache_Controller.IS_I.Data_all_Acks::total           14                       (Unspecified)
system.caches.L1Cache_Controller.M_I.Ifetch |           0      0.00%      0.00% |           0      0.00%      0.00% |           1    100.00%    100.00% |           0      0.00%    100.00% |           0      0.00%    100.00% |           0      0.00%    100.00% |           0      0.00%    100.00% |           0      0.00%    100.00% (Unspecified)
system.caches.L1Cache_Controller.M_I.Ifetch::total            1                       (Unspecified)
system.caches.L1Cache_Controller.M_I.Inv |           0      0.00%      0.00% |           1     50.00%     50.00% |           0      0.00%     50.00% |           0      0.00%     50.00% |           0      0.00%     50.00% |           0      0.00%     50.00% |           1     50.00%    100.00% |           0      0.00%    100.00% (Unspecified)
system.caches.L1Cache_Controller.M_I.Inv::total            2                       (Unspecified)
system.caches.L1Cache_Controller.M_I.WB_Ack |      423538     12.74%     12.74% |      396437     11.93%     24.67% |      430313     12.94%     37.61% |      412772     12.42%     50.03% |      413894     12.45%     62.48% |      424689     12.78%     75.26% |      411848     12.39%     87.65% |      410682     12.35%    100.00% (Unspecified)
system.caches.L1Cache_Controller.M_I.WB_Ack::total      3324173                       (Unspecified)
system.caches.L1Cache_Controller.SINK_WB_ACK.WB_Ack |           0      0.00%      0.00% |           1     50.00%     50.00% |           0      0.00%     50.00% |           0      0.00%     50.00% |           0      0.00%     50.00% |           0      0.00%     50.00% |           1     50.00%    100.00% |           0      0.00%    100.00% (Unspecified)
system.caches.L1Cache_Controller.SINK_WB_ACK.WB_Ack::total            2                       (Unspecified)
system.caches.Directory_Controller.Fetch |        5548      0.16%      0.16% |     3389389     99.84%    100.00% (Unspecified)
system.caches.Directory_Controller.Fetch::total      3394937                       (Unspecified)
system.caches.Directory_Controller.Data  |         137      0.02%      0.02% |      585778     99.98%    100.00% (Unspecified)
system.caches.Directory_Controller.Data::total       585915                       (Unspecified)
system.caches.Directory_Controller.Memory_Data |        5548      0.16%      0.16% |     3389374     99.84%    100.00% (Unspecified)
system.caches.Directory_Controller.Memory_Data::total      3394922                       (Unspecified)
system.caches.Directory_Controller.Memory_Ack |         137      0.02%      0.02% |      585778     99.98%    100.00% (Unspecified)
system.caches.Directory_Controller.Memory_Ack::total       585915                       (Unspecified)
system.caches.Directory_Controller.CleanReplacement |        5423      0.20%      0.20% |     2672527     99.80%    100.00% (Unspecified)
system.caches.Directory_Controller.CleanReplacement::total      2677950                       (Unspecified)
system.caches.Directory_Controller.I.Fetch |        5548      0.16%      0.16% |     3389389     99.84%    100.00% (Unspecified)
system.caches.Directory_Controller.I.Fetch::total      3394937                       (Unspecified)
system.caches.Directory_Controller.M.Data |         137      0.02%      0.02% |      585778     99.98%    100.00% (Unspecified)
system.caches.Directory_Controller.M.Data::total       585915                       (Unspecified)
system.caches.Directory_Controller.M.CleanReplacement |        5423      0.20%      0.20% |     2672527     99.80%    100.00% (Unspecified)
system.caches.Directory_Controller.M.CleanReplacement::total      2677950                       (Unspecified)
system.caches.Directory_Controller.IM.Memory_Data |        5548      0.16%      0.16% |     3389374     99.84%    100.00% (Unspecified)
system.caches.Directory_Controller.IM.Memory_Data::total      3394922                       (Unspecified)
system.caches.Directory_Controller.MI.Memory_Ack |         137      0.02%      0.02% |      585778     99.98%    100.00% (Unspecified)
system.caches.Directory_Controller.MI.Memory_Ack::total       585915                       (Unspecified)
system.caches.L2Cache_Controller.L1_GET_INSTR |        4314     12.30%     12.30% |        5439     15.51%     27.81% |        4043     11.53%     39.33% |        3495      9.96%     49.30% |        4404     12.56%     61.85% |        4269     12.17%     74.03% |        4253     12.13%     86.15% |        4857     13.85%    100.00% (Unspecified)
system.caches.L2Cache_Controller.L1_GET_INSTR::total        35074                       (Unspecified)
system.caches.L2Cache_Controller.L1_GETS |      493586     12.67%     12.67% |      485097     12.45%     25.11% |      487084     12.50%     37.61% |      484089     12.42%     50.04% |      485334     12.45%     62.49% |      485954     12.47%     74.96% |      484843     12.44%     87.40% |      490952     12.60%    100.00% (Unspecified)
system.caches.L2Cache_Controller.L1_GETS::total      3896939                       (Unspecified)
system.caches.L2Cache_Controller.L1_GETX |       38610     12.33%     12.33% |       43946     14.03%     26.36% |       37769     12.06%     38.43% |       38339     12.24%     50.67% |       38170     12.19%     62.86% |       39047     12.47%     75.33% |       38380     12.26%     87.59% |       38874     12.41%    100.00% (Unspecified)
system.caches.L2Cache_Controller.L1_GETX::total       313135                       (Unspecified)
system.caches.L2Cache_Controller.L1_UPGRADE |        1172      8.95%      8.95% |        1124      8.58%     17.53% |        1113      8.50%     26.03% |        1123      8.58%     34.61% |        1214      9.27%     43.88% |        1199      9.16%     53.04% |        1305      9.97%     63.00% |        4845     37.00%    100.00% (Unspecified)
system.caches.L2Cache_Controller.L1_UPGRADE::total        13095                       (Unspecified)
system.caches.L2Cache_Controller.L1_PUTX |      412008     12.39%     12.39% |      416230     12.52%     24.92% |      416061     12.52%     37.43% |      416474     12.53%     49.96% |      416338     12.52%     62.49% |      416822     12.54%     75.02% |      415917     12.51%     87.54% |      414323     12.46%    100.00% (Unspecified)
system.caches.L2Cache_Controller.L1_PUTX::total      3324173                       (Unspecified)
system.caches.L2Cache_Controller.L1_PUTX_old |           2     50.00%     50.00% |           0      0.00%     50.00% |           2     50.00%    100.00% |           0      0.00%    100.00% |           0      0.00%    100.00% |           0      0.00%    100.00% |           0      0.00%    100.00% |           0      0.00%    100.00% (Unspecified)
system.caches.L2Cache_Controller.L1_PUTX_old::total            4                       (Unspecified)
system.caches.L2Cache_Controller.L2_Replacement |       71512     12.48%     12.48% |       71639     12.50%     24.98% |       71548     12.49%     37.47% |       71640     12.50%     49.98% |       71625     12.50%     62.48% |       71868     12.54%     75.02% |       71581     12.49%     87.51% |       71538     12.49%    100.00% (Unspecified)
system.caches.L2Cache_Controller.L2_Replacement::total       572951                       (Unspecified)
system.caches.L2Cache_Controller.L2_Replacement_clean |      336682     12.51%     12.51% |      336111     12.49%     25.00% |      336552     12.51%     37.51% |      336343     12.50%     50.01% |      336485     12.50%     62.51% |      336494     12.50%     75.02% |      336197     12.49%     87.51% |      336050     12.49%    100.00% (Unspecified)
system.caches.L2Cache_Controller.L2_Replacement_clean::total      2690914                       (Unspecified)
system.caches.L2Cache_Controller.Mem_Data |      424577     12.51%     12.51% |      424130     12.49%     25.00% |      424483     12.50%     37.50% |      424365     12.50%     50.00% |      424492     12.50%     62.51% |      424745     12.51%     75.02% |      424161     12.49%     87.51% |      423969     12.49%    100.00% (Unspecified)
system.caches.L2Cache_Controller.Mem_Data::total      3394922                       (Unspecified)
system.caches.L2Cache_Controller.Mem_Ack |      408194     12.51%     12.51% |      407750     12.49%     25.00% |      408100     12.50%     37.50% |      407983     12.50%     50.00% |      408110     12.50%     62.51% |      408362     12.51%     75.02% |      407778     12.49%     87.51% |      407588     12.49%    100.00% (Unspecified)
system.caches.L2Cache_Controller.Mem_Ack::total      3263865                       (Unspecified)
system.caches.L2Cache_Controller.WB_Data |        4432     11.78%     11.78% |        4249     11.30%     23.08% |        4109     10.92%     34.00% |        4164     11.07%     45.07% |        4285     11.39%     56.46% |        4487     11.93%     68.39% |        4421     11.75%     80.14% |        7470     19.86%    100.00% (Unspecified)
system.caches.L2Cache_Controller.WB_Data::total        37617                       (Unspecified)
system.caches.L2Cache_Controller.WB_Data_clean |        9333     22.81%     22.81% |        4146     10.13%     32.94% |        4316     10.55%     43.48% |        4111     10.05%     53.53% |        4289     10.48%     64.01% |        4220     10.31%     74.32% |        4248     10.38%     84.70% |        6260     15.30%    100.00% (Unspecified)
system.caches.L2Cache_Controller.WB_Data_clean::total        40923                       (Unspecified)
system.caches.L2Cache_Controller.Ack     |       18235     15.74%     15.74% |       13680     11.81%     27.55% |       13830     11.94%     39.48% |       12648     10.92%     50.40% |       13800     11.91%     62.31% |       13968     12.06%     74.37% |       13703     11.83%     86.19% |       15996     13.81%    100.00% (Unspecified)
system.caches.L2Cache_Controller.Ack::total       115860                       (Unspecified)
system.caches.L2Cache_Controller.Ack_all |       22147     14.90%     14.90% |       18107     12.18%     27.07% |       17876     12.02%     39.10% |       17682     11.89%     50.99% |       18072     12.16%     63.15% |       17829     11.99%     75.14% |       17939     12.07%     87.20% |       19024     12.80%    100.00% (Unspecified)
system.caches.L2Cache_Controller.Ack_all::total       148676                       (Unspecified)
system.caches.L2Cache_Controller.Unblock |       11869     18.46%     18.46% |        6627     10.31%     28.77% |        6764     10.52%     39.30% |        6576     10.23%     49.53% |        6870     10.69%     60.21% |        6780     10.55%     70.76% |        6916     10.76%     81.52% |       11879     18.48%    100.00% (Unspecified)
system.caches.L2Cache_Controller.Unblock::total        64281                       (Unspecified)
system.caches.L2Cache_Controller.Exclusive_Unblock |      439985     12.48%     12.48% |      445046     12.62%     25.10% |      439091     12.45%     37.55% |      439663     12.47%     50.02% |      439685     12.47%     62.49% |      440523     12.49%     74.98% |      439408     12.46%     87.44% |      442802     12.56%    100.00% (Unspecified)
system.caches.L2Cache_Controller.Exclusive_Unblock::total      3526203                       (Unspecified)
system.caches.L2Cache_Controller.NP.L1_GET_INSTR |         861     12.72%     12.72% |         865     12.78%     25.50% |         836     12.35%     37.85% |         800     11.82%     49.67% |         862     12.73%     62.40% |         876     12.94%     75.34% |         824     12.17%     87.52% |         845     12.48%    100.00% (Unspecified)
system.caches.L2Cache_Controller.NP.L1_GET_INSTR::total         6769                       (Unspecified)
system.caches.L2Cache_Controller.NP.L1_GETS |      391143     12.50%     12.50% |      390836     12.49%     25.00% |      391317     12.51%     37.51% |      391126     12.50%     50.01% |      391098     12.50%     62.51% |      391320     12.51%     75.02% |      390830     12.49%     87.52% |      390500     12.48%    100.00% (Unspecified)
system.caches.L2Cache_Controller.NP.L1_GETS::total      3128170                       (Unspecified)
system.caches.L2Cache_Controller.NP.L1_GETX |       32574     12.53%     12.53% |       32433     12.47%     25.00% |       32331     12.44%     37.44% |       32441     12.48%     49.92% |       32534     12.51%     62.43% |       32550     12.52%     74.95% |       32508     12.50%     87.45% |       32627     12.55%    100.00% (Unspecified)
system.caches.L2Cache_Controller.NP.L1_GETX::total       259998                       (Unspecified)
system.caches.L2Cache_Controller.NP.L1_PUTX_old |           1     50.00%     50.00% |           0      0.00%     50.00% |           1     50.00%    100.00% |           0      0.00%    100.00% |           0      0.00%    100.00% |           0      0.00%    100.00% |           0      0.00%    100.00% |           0      0.00%    100.00% (Unspecified)
system.caches.L2Cache_Controller.NP.L1_PUTX_old::total            2                       (Unspecified)
system.caches.L2Cache_Controller.SS.L1_GET_INSTR |        3123     12.12%     12.12% |        4260     16.53%     28.65% |        2928     11.36%     40.01% |        2427      9.42%     49.42% |        3170     12.30%     61.72% |        3097     12.02%     73.74% |        3069     11.91%     85.64% |        3700     14.36%    100.00% (Unspecified)
system.caches.L2Cache_Controller.SS.L1_GET_INSTR::total        25774                       (Unspecified)
system.caches.L2Cache_Controller.SS.L1_GETS |       81155     12.87%     12.87% |       78235     12.41%     25.28% |       79855     12.66%     37.94% |       77131     12.23%     50.17% |       77908     12.36%     62.53% |       78626     12.47%     75.00% |       77897     12.35%     87.35% |       79752     12.65%    100.00% (Unspecified)
system.caches.L2Cache_Controller.SS.L1_GETS::total       630559                       (Unspecified)
system.caches.L2Cache_Controller.SS.L1_GETX |         398     13.43%     13.43% |         346     11.68%     25.11% |         360     12.15%     37.26% |         351     11.85%     49.11% |         403     13.60%     62.71% |         357     12.05%     74.76% |         367     12.39%     87.14% |         381     12.86%    100.00% (Unspecified)
system.caches.L2Cache_Controller.SS.L1_GETX::total         2963                       (Unspecified)
system.caches.L2Cache_Controller.SS.L1_UPGRADE |        1172      8.96%      8.96% |        1124      8.60%     17.56% |        1113      8.51%     26.07% |        1123      8.59%     34.66% |        1213      9.28%     43.94% |        1196      9.15%     53.09% |        1290      9.87%     62.95% |        4844     37.05%    100.00% (Unspecified)
system.caches.L2Cache_Controller.SS.L1_UPGRADE::total        13075                       (Unspecified)
system.caches.L2Cache_Controller.SS.L2_Replacement |         781     11.76%     11.76% |         849     12.78%     24.54% |         817     12.30%     36.84% |         820     12.35%     49.19% |         857     12.90%     62.09% |         807     12.15%     74.24% |         851     12.81%     87.05% |         860     12.95%    100.00% (Unspecified)
system.caches.L2Cache_Controller.SS.L2_Replacement::total         6642                       (Unspecified)
system.caches.L2Cache_Controller.SS.L2_Replacement_clean |        9106     22.34%     22.34% |        4253     10.43%     32.78% |        4376     10.74%     43.51% |        4129     10.13%     53.64% |        4324     10.61%     64.25% |        4371     10.72%     74.97% |        4261     10.45%     85.43% |        5939     14.57%    100.00% (Unspecified)
system.caches.L2Cache_Controller.SS.L2_Replacement_clean::total        40759                       (Unspecified)
system.caches.L2Cache_Controller.M.L1_GET_INSTR |           0      0.00%      0.00% |           2     22.22%     22.22% |           1     11.11%     33.33% |           1     11.11%     44.44% |           0      0.00%     44.44% |           1     11.11%     55.56% |           2     22.22%     77.78% |           2     22.22%    100.00% (Unspecified)
system.caches.L2Cache_Controller.M.L1_GET_INSTR::total            9                       (Unspecified)
system.caches.L2Cache_Controller.M.L1_GETS |        9133     12.60%     12.60% |        9316     12.85%     25.45% |        8950     12.34%     37.79% |        9122     12.58%     50.37% |        9241     12.75%     63.12% |        9055     12.49%     75.60% |        9018     12.44%     88.04% |        8670     11.96%    100.00% (Unspecified)
system.caches.L2Cache_Controller.M.L1_GETS::total        72505                       (Unspecified)
system.caches.L2Cache_Controller.M.L1_GETX |        5540     12.93%     12.93% |        5451     12.72%     25.65% |        5052     11.79%     37.44% |        5187     12.10%     49.54% |        5193     12.12%     61.66% |        5620     13.11%     74.77% |        5356     12.50%     87.27% |        5454     12.73%    100.00% (Unspecified)
system.caches.L2Cache_Controller.M.L1_GETX::total        42853                       (Unspecified)
system.caches.L2Cache_Controller.M.L2_Replacement |       70427     12.48%     12.48% |       70508     12.50%     24.98% |       70522     12.50%     37.49% |       70589     12.51%     50.00% |       70507     12.50%     62.50% |       70744     12.54%     75.04% |       70470     12.49%     87.53% |       70336     12.47%    100.00% (Unspecified)
system.caches.L2Cache_Controller.M.L2_Replacement::total       564103                       (Unspecified)
system.caches.L2Cache_Controller.M.L2_Replacement_clean |      313724     12.37%     12.37% |      317367     12.51%     24.88% |      318041     12.54%     37.41% |      318013     12.54%     49.95% |      317827     12.53%     62.48% |      317862     12.53%     75.01% |      317616     12.52%     87.53% |      316377     12.47%    100.00% (Unspecified)
system.caches.L2Cache_Controller.M.L2_Replacement_clean::total      2536827                       (Unspecified)
system.caches.L2Cache_Controller.MT.L1_GETS |       11869     18.46%     18.46% |        6627     10.31%     28.77% |        6764     10.52%     39.30% |        6576     10.23%     49.53% |        6870     10.69%     60.21% |        6780     10.55%     70.76% |        6916     10.76%     81.52% |       11879     18.48%    100.00% (Unspecified)
system.caches.L2Cache_Controller.MT.L1_GETS::total        64281                       (Unspecified)
system.caches.L2Cache_Controller.MT.L1_GETX |          84      1.19%      1.19% |        5595     79.51%     80.70% |          26      0.37%     81.07% |         359      5.10%     86.17% |          40      0.57%     86.74% |         485      6.89%     93.63% |          76      1.08%     94.71% |         372      5.29%    100.00% (Unspecified)
system.caches.L2Cache_Controller.MT.L1_GETX::total         7037                       (Unspecified)
system.caches.L2Cache_Controller.MT.L1_PUTX |      412008     12.39%     12.39% |      416230     12.52%     24.92% |      416061     12.52%     37.43% |      416474     12.53%     49.96% |      416338     12.52%     62.49% |      416822     12.54%     75.02% |      415917     12.51%     87.54% |      414323     12.46%    100.00% (Unspecified)
system.caches.L2Cache_Controller.MT.L1_PUTX::total      3324173                       (Unspecified)
system.caches.L2Cache_Controller.MT.L2_Replacement |         304     13.78%     13.78% |         282     12.78%     26.56% |         209      9.47%     36.04% |         231     10.47%     46.51% |         261     11.83%     58.34% |         317     14.37%     72.71% |         260     11.79%     84.50% |         342     15.50%    100.00% (Unspecified)
system.caches.L2Cache_Controller.MT.L2_Replacement::total         2206                       (Unspecified)
system.caches.L2Cache_Controller.MT.L2_Replacement_clean |       13852     12.22%     12.22% |       14491     12.79%     25.01% |       14135     12.47%     37.48% |       14201     12.53%     50.01% |       14334     12.65%     62.66% |       14261     12.58%     75.25% |       14320     12.64%     87.88% |       13734     12.12%    100.00% (Unspecified)
system.caches.L2Cache_Controller.MT.L2_Replacement_clean::total       113328                       (Unspecified)
system.caches.L2Cache_Controller.M_I.L1_GET_INSTR |           8     15.38%     15.38% |           0      0.00%     15.38% |           0      0.00%     15.38% |           8     15.38%     30.77% |          10     19.23%     50.00% |           0      0.00%     50.00% |          19     36.54%     86.54% |           7     13.46%    100.00% (Unspecified)
system.caches.L2Cache_Controller.M_I.L1_GET_INSTR::total           52                       (Unspecified)
system.caches.L2Cache_Controller.M_I.L1_GETS |          11     21.57%     21.57% |           0      0.00%     21.57% |           3      5.88%     27.45% |          14     27.45%     54.90% |           0      0.00%     54.90% |          18     35.29%     90.20% |           2      3.92%     94.12% |           3      5.88%    100.00% (Unspecified)
system.caches.L2Cache_Controller.M_I.L1_GETS::total           51                       (Unspecified)
system.caches.L2Cache_Controller.M_I.L1_GETX |          14     87.50%     87.50% |           1      6.25%     93.75% |           0      0.00%     93.75% |           0      0.00%     93.75% |           0      0.00%     93.75% |           0      0.00%     93.75% |           0      0.00%     93.75% |           1      6.25%    100.00% (Unspecified)
system.caches.L2Cache_Controller.M_I.L1_GETX::total           16                       (Unspecified)
system.caches.L2Cache_Controller.M_I.Mem_Ack |      408194     12.51%     12.51% |      407750     12.49%     25.00% |      408100     12.50%     37.50% |      407983     12.50%     50.00% |      408110     12.50%     62.51% |      408362     12.51%     75.02% |      407778     12.49%     87.51% |      407588     12.49%    100.00% (Unspecified)
system.caches.L2Cache_Controller.M_I.Mem_Ack::total      3263865                       (Unspecified)
system.caches.L2Cache_Controller.MT_I.WB_Data |         192     14.85%     14.85% |         152     11.76%     26.60% |          99      7.66%     34.26% |         137     10.60%     44.86% |         138     10.67%     55.53% |         200     15.47%     71.00% |         144     11.14%     82.13% |         231     17.87%    100.00% (Unspecified)
system.caches.L2Cache_Controller.MT_I.WB_Data::total         1293                       (Unspecified)
system.caches.L2Cache_Controller.MT_I.Ack_all |         112     12.27%     12.27% |         130     14.24%     26.51% |         110     12.05%     38.55% |          94     10.30%     48.85% |         123     13.47%     62.32% |         117     12.81%     75.14% |         116     12.71%     87.84% |         111     12.16%    100.00% (Unspecified)
system.caches.L2Cache_Controller.MT_I.Ack_all::total          913                       (Unspecified)
system.caches.L2Cache_Controller.MCT_I.L1_PUTX_old |           1     50.00%     50.00% |           0      0.00%     50.00% |           1     50.00%    100.00% |           0      0.00%    100.00% |           0      0.00%    100.00% |           0      0.00%    100.00% |           0      0.00%    100.00% |           0      0.00%    100.00% (Unspecified)
system.caches.L2Cache_Controller.MCT_I.L1_PUTX_old::total            2                       (Unspecified)
system.caches.L2Cache_Controller.MCT_I.WB_Data |        1703     13.14%     13.14% |        1616     12.47%     25.60% |        1561     12.04%     37.64% |        1562     12.05%     49.69% |        1566     12.08%     61.77% |        1727     13.32%     75.09% |        1609     12.41%     87.50% |        1620     12.50%    100.00% (Unspecified)
system.caches.L2Cache_Controller.MCT_I.WB_Data::total        12964                       (Unspecified)
system.caches.L2Cache_Controller.MCT_I.WB_Data_clean |           1     50.00%     50.00% |           0      0.00%     50.00% |           1     50.00%    100.00% |           0      0.00%    100.00% |           0      0.00%    100.00% |           0      0.00%    100.00% |           0      0.00%    100.00% |           0      0.00%    100.00% (Unspecified)
system.caches.L2Cache_Controller.MCT_I.WB_Data_clean::total            2                       (Unspecified)
system.caches.L2Cache_Controller.MCT_I.Ack_all |       12148     12.10%     12.10% |       12875     12.83%     24.93% |       12573     12.53%     37.46% |       12639     12.59%     50.05% |       12768     12.72%     62.78% |       12534     12.49%     75.26% |       12711     12.67%     87.93% |       12114     12.07%    100.00% (Unspecified)
system.caches.L2Cache_Controller.MCT_I.Ack_all::total       100362                       (Unspecified)
system.caches.L2Cache_Controller.I_I.L1_GETS |           1     50.00%     50.00% |           0      0.00%     50.00% |           0      0.00%     50.00% |           0      0.00%     50.00% |           0      0.00%     50.00% |           0      0.00%     50.00% |           0      0.00%     50.00% |           1     50.00%    100.00% (Unspecified)
system.caches.L2Cache_Controller.I_I.L1_GETS::total            2                       (Unspecified)
system.caches.L2Cache_Controller.I_I.Ack |       15960     16.57%     16.57% |       11122     11.54%     28.11% |       11473     11.91%     40.02% |       10227     10.62%     50.63% |       11267     11.69%     62.33% |       11592     12.03%     74.36% |       11230     11.66%     86.02% |       13470     13.98%    100.00% (Unspecified)
system.caches.L2Cache_Controller.I_I.Ack::total        96341                       (Unspecified)
system.caches.L2Cache_Controller.I_I.Ack_all |        9106     22.34%     22.34% |        4253     10.43%     32.78% |        4376     10.74%     43.51% |        4129     10.13%     53.64% |        4324     10.61%     64.25% |        4371     10.72%     74.97% |        4261     10.45%     85.43% |        5939     14.57%    100.00% (Unspecified)
system.caches.L2Cache_Controller.I_I.Ack_all::total        40759                       (Unspecified)
system.caches.L2Cache_Controller.S_I.Ack |        2275     11.66%     11.66% |        2558     13.11%     24.76% |        2357     12.08%     36.84% |        2421     12.40%     49.24% |        2533     12.98%     62.22% |        2376     12.17%     74.39% |        2473     12.67%     87.06% |        2526     12.94%    100.00% (Unspecified)
system.caches.L2Cache_Controller.S_I.Ack::total        19519                       (Unspecified)
system.caches.L2Cache_Controller.S_I.Ack_all |         781     11.76%     11.76% |         849     12.78%     24.54% |         817     12.30%     36.84% |         820     12.35%     49.19% |         857     12.90%     62.09% |         807     12.15%     74.24% |         851     12.81%     87.05% |         860     12.95%    100.00% (Unspecified)
system.caches.L2Cache_Controller.S_I.Ack_all::total         6642                       (Unspecified)
system.caches.L2Cache_Controller.ISS.L1_GETS |          58     15.14%     15.14% |          51     13.32%     28.46% |          57     14.88%     43.34% |          44     11.49%     54.83% |          35      9.14%     63.97% |          59     15.40%     79.37% |          36      9.40%     88.77% |          43     11.23%    100.00% (Unspecified)
system.caches.L2Cache_Controller.ISS.L1_GETS::total          383                       (Unspecified)
system.caches.L2Cache_Controller.ISS.Mem_Data |      391084     12.50%     12.50% |      390781     12.49%     25.00% |      391259     12.51%     37.51% |      391080     12.50%     50.01% |      391061     12.50%     62.51% |      391260     12.51%     75.02% |      390793     12.49%     87.52% |      390454     12.48%    100.00% (Unspecified)
system.caches.L2Cache_Controller.ISS.Mem_Data::total      3127772                       (Unspecified)
system.caches.L2Cache_Controller.IS.L1_GET_INSTR |         322     13.04%     13.04% |         312     12.63%     25.67% |         278     11.26%     36.92% |         259     10.49%     47.41% |         362     14.66%     62.06% |         295     11.94%     74.01% |         339     13.72%     87.73% |         303     12.27%    100.00% (Unspecified)
system.caches.L2Cache_Controller.IS.L1_GET_INSTR::total         2470                       (Unspecified)
system.caches.L2Cache_Controller.IS.L1_GETS |         114     26.15%     26.15% |          28      6.42%     32.57% |          89     20.41%     52.98% |          63     14.45%     67.43% |          10      2.29%     69.72% |          71     16.28%     86.01% |          25      5.73%     91.74% |          36      8.26%    100.00% (Unspecified)
system.caches.L2Cache_Controller.IS.L1_GETS::total          436                       (Unspecified)
system.caches.L2Cache_Controller.IS.Mem_Data |         919     12.85%     12.85% |         916     12.81%     25.66% |         893     12.49%     38.14% |         844     11.80%     49.94% |         897     12.54%     62.49% |         935     13.07%     75.56% |         860     12.02%     87.58% |         888     12.42%    100.00% (Unspecified)
system.caches.L2Cache_Controller.IS.Mem_Data::total         7152                       (Unspecified)
system.caches.L2Cache_Controller.IM.L1_GETX |           0      0.00%      0.00% |           8     72.73%     72.73% |           0      0.00%     72.73% |           0      0.00%     72.73% |           0      0.00%     72.73% |           1      9.09%     81.82% |           1      9.09%     90.91% |           1      9.09%    100.00% (Unspecified)
system.caches.L2Cache_Controller.IM.L1_GETX::total           11                       (Unspecified)
system.caches.L2Cache_Controller.IM.Mem_Data |       32574     12.53%     12.53% |       32433     12.47%     25.00% |       32331     12.44%     37.44% |       32441     12.48%     49.92% |       32534     12.51%     62.43% |       32550     12.52%     74.95% |       32508     12.50%     87.45% |       32627     12.55%    100.00% (Unspecified)
system.caches.L2Cache_Controller.IM.Mem_Data::total       259998                       (Unspecified)
system.caches.L2Cache_Controller.SS_MB.L1_GETS |          51     21.79%     21.79% |           0      0.00%     21.79% |           0      0.00%     21.79% |           0      0.00%     21.79% |          92     39.32%     61.11% |           2      0.85%     61.97% |          62     26.50%     88.46% |          27     11.54%    100.00% (Unspecified)
system.caches.L2Cache_Controller.SS_MB.L1_GETS::total          234                       (Unspecified)
system.caches.L2Cache_Controller.SS_MB.L1_GETX |           0      0.00%      0.00% |           0      0.00%      0.00% |           0      0.00%      0.00% |           1      4.17%      4.17% |           0      0.00%      4.17% |           0      0.00%      4.17% |          22     91.67%     95.83% |           1      4.17%    100.00% (Unspecified)
system.caches.L2Cache_Controller.SS_MB.L1_GETX::total           24                       (Unspecified)
system.caches.L2Cache_Controller.SS_MB.L1_UPGRADE |           0      0.00%      0.00% |           0      0.00%      0.00% |           0      0.00%      0.00% |           0      0.00%      0.00% |           0      0.00%      0.00% |           1     33.33%     33.33% |           2     66.67%    100.00% |           0      0.00%    100.00% (Unspecified)
system.caches.L2Cache_Controller.SS_MB.L1_UPGRADE::total            3                       (Unspecified)
system.caches.L2Cache_Controller.SS_MB.Exclusive_Unblock |        1570      9.79%      9.79% |        1470      9.17%     18.95% |        1473      9.18%     28.14% |        1474      9.19%     37.33% |        1616     10.08%     47.41% |        1553      9.68%     57.09% |        1657     10.33%     67.42% |        5225     32.58%    100.00% (Unspecified)
system.caches.L2Cache_Controller.SS_MB.Exclusive_Unblock::total        16038                       (Unspecified)
system.caches.L2Cache_Controller.MT_MB.L1_GETS |           0      0.00%      0.00% |           3     20.00%     20.00% |           1      6.67%     26.67% |           1      6.67%     33.33% |           1      6.67%     40.00% |           4     26.67%     66.67% |           2     13.33%     80.00% |           3     20.00%    100.00% (Unspecified)
system.caches.L2Cache_Controller.MT_MB.L1_GETS::total           15                       (Unspecified)
system.caches.L2Cache_Controller.MT_MB.L1_GETX |           0      0.00%      0.00% |         112     48.70%     48.70% |           0      0.00%     48.70% |           0      0.00%     48.70% |           0      0.00%     48.70% |          33     14.35%     63.04% |          48     20.87%     83.91% |          37     16.09%    100.00% (Unspecified)
system.caches.L2Cache_Controller.MT_MB.L1_GETX::total          230                       (Unspecified)
system.caches.L2Cache_Controller.MT_MB.Exclusive_Unblock |      438415     12.49%     12.49% |      443576     12.64%     25.13% |      437618     12.47%     37.59% |      438189     12.48%     50.08% |      438069     12.48%     62.56% |      438970     12.51%     75.06% |      437751     12.47%     87.53% |      437577     12.47%    100.00% (Unspecified)
system.caches.L2Cache_Controller.MT_MB.Exclusive_Unblock::total      3510165                       (Unspecified)
system.caches.L2Cache_Controller.MT_IIB.L1_GETS |          49     17.13%     17.13% |           1      0.35%     17.48% |          47     16.43%     33.92% |           9      3.15%     37.06% |          79     27.62%     64.69% |          17      5.94%     70.63% |          46     16.08%     86.71% |          38     13.29%    100.00% (Unspecified)
system.caches.L2Cache_Controller.MT_IIB.L1_GETS::total          286                       (Unspecified)
system.caches.L2Cache_Controller.MT_IIB.L1_GETX |           0      0.00%      0.00% |           0      0.00%      0.00% |           0      0.00%      0.00% |           0      0.00%      0.00% |           0      0.00%      0.00% |           1     33.33%     33.33% |           2     66.67%    100.00% |           0      0.00%    100.00% (Unspecified)
system.caches.L2Cache_Controller.MT_IIB.L1_GETX::total            3                       (Unspecified)
system.caches.L2Cache_Controller.MT_IIB.WB_Data |        2535     10.87%     10.87% |        2479     10.63%     21.51% |        2449     10.50%     32.01% |        2443     10.48%     42.49% |        2561     10.99%     53.48% |        2560     10.98%     64.46% |        2668     11.44%     75.90% |        5618     24.10%    100.00% (Unspecified)
system.caches.L2Cache_Controller.MT_IIB.WB_Data::total        23313                       (Unspecified)
system.caches.L2Cache_Controller.MT_IIB.WB_Data_clean |        9331     22.80%     22.80% |        4146     10.13%     32.94% |        4315     10.55%     43.48% |        4109     10.04%     53.52% |        4289     10.48%     64.01% |        4220     10.31%     74.32% |        4248     10.38%     84.70% |        6260     15.30%    100.00% (Unspecified)
system.caches.L2Cache_Controller.MT_IIB.WB_Data_clean::total        40918                       (Unspecified)
system.caches.L2Cache_Controller.MT_IIB.Unblock |           3      6.00%      6.00% |           2      4.00%     10.00% |           0      0.00%     10.00% |          24     48.00%     58.00% |          20     40.00%     98.00% |           0      0.00%     98.00% |           0      0.00%     98.00% |           1      2.00%    100.00% (Unspecified)
system.caches.L2Cache_Controller.MT_IIB.Unblock::total           50                       (Unspecified)
system.caches.L2Cache_Controller.MT_IB.WB_Data |           2      4.26%      4.26% |           2      4.26%      8.51% |           0      0.00%      8.51% |          22     46.81%     55.32% |          20     42.55%     97.87% |           0      0.00%     97.87% |           0      0.00%     97.87% |           1      2.13%    100.00% (Unspecified)
system.caches.L2Cache_Controller.MT_IB.WB_Data::total           47                       (Unspecified)
system.caches.L2Cache_Controller.MT_IB.WB_Data_clean |           1     33.33%     33.33% |           0      0.00%     33.33% |           0      0.00%     33.33% |           2     66.67%    100.00% |           0      0.00%    100.00% |           0      0.00%    100.00% |           0      0.00%    100.00% |           0      0.00%    100.00% (Unspecified)
system.caches.L2Cache_Controller.MT_IB.WB_Data_clean::total            3                       (Unspecified)
system.caches.L2Cache_Controller.MT_SB.L1_GETS |           2     11.76%     11.76% |           0      0.00%     11.76% |           1      5.88%     17.65% |           3     17.65%     35.29% |           0      0.00%     35.29% |           2     11.76%     47.06% |           9     52.94%    100.00% |           0      0.00%    100.00% (Unspecified)
system.caches.L2Cache_Controller.MT_SB.L1_GETS::total           17                       (Unspecified)
system.caches.L2Cache_Controller.MT_SB.L1_UPGRADE |           0      0.00%      0.00% |           0      0.00%      0.00% |           0      0.00%      0.00% |           0      0.00%      0.00% |           1      5.88%      5.88% |           2     11.76%     17.65% |          13     76.47%     94.12% |           1      5.88%    100.00% (Unspecified)
system.caches.L2Cache_Controller.MT_SB.L1_UPGRADE::total           17                       (Unspecified)
system.caches.L2Cache_Controller.MT_SB.Unblock |       11866     18.47%     18.47% |        6625     10.31%     28.79% |        6764     10.53%     39.32% |        6552     10.20%     49.52% |        6850     10.66%     60.18% |        6780     10.56%     70.74% |        6916     10.77%     81.51% |       11878     18.49%    100.00% (Unspecified)
system.caches.L2Cache_Controller.MT_SB.Unblock::total        64231                       (Unspecified)
system.caches.RequestType.LD.latency_hist_seqr::bucket_size         1024                       (Unspecified)
system.caches.RequestType.LD.latency_hist_seqr::max_bucket        10239                       (Unspecified)
system.caches.RequestType.LD.latency_hist_seqr::samples    107783254                       (Unspecified)
system.caches.RequestType.LD.latency_hist_seqr::mean    23.985445                       (Unspecified)
system.caches.RequestType.LD.latency_hist_seqr::gmean     1.235229                       (Unspecified)
system.caches.RequestType.LD.latency_hist_seqr::stdev   148.071908                       (Unspecified)
system.caches.RequestType.LD.latency_hist_seqr |   107229429     99.49%     99.49% |      493605      0.46%     99.94% |       57517      0.05%    100.00% |        2576      0.00%    100.00% |         124      0.00%    100.00% |           3      0.00%    100.00% |           0      0.00%    100.00% |           0      0.00%    100.00% |           0      0.00%    100.00% |           0      0.00%    100.00% (Unspecified)
system.caches.RequestType.LD.latency_hist_seqr::total    107783254                       (Unspecified)
system.caches.RequestType.LD.hit_latency_hist_seqr::bucket_size            1                       (Unspecified)
system.caches.RequestType.LD.hit_latency_hist_seqr::max_bucket            9                       (Unspecified)
system.caches.RequestType.LD.hit_latency_hist_seqr::samples    103886935                       (Unspecified)
system.caches.RequestType.LD.hit_latency_hist_seqr::mean     1.001904                       (Unspecified)
system.caches.RequestType.LD.hit_latency_hist_seqr::gmean     1.001320                       (Unspecified)
system.caches.RequestType.LD.hit_latency_hist_seqr::stdev     0.043598                       (Unspecified)
system.caches.RequestType.LD.hit_latency_hist_seqr |           0      0.00%      0.00% |   103689185     99.81%     99.81% |      197719      0.19%    100.00% |          31      0.00%    100.00% |           0      0.00%    100.00% |           0      0.00%    100.00% |           0      0.00%    100.00% |           0      0.00%    100.00% |           0      0.00%    100.00% |           0      0.00%    100.00% (Unspecified)
system.caches.RequestType.LD.hit_latency_hist_seqr::total    103886935                       (Unspecified)
system.caches.RequestType.LD.miss_latency_hist_seqr::bucket_size         1024                       (Unspecified)
system.caches.RequestType.LD.miss_latency_hist_seqr::max_bucket        10239                       (Unspecified)
system.caches.RequestType.LD.miss_latency_hist_seqr::samples      3896319                       (Unspecified)
system.caches.RequestType.LD.miss_latency_hist_seqr::mean   636.791956                       (Unspecified)
system.caches.RequestType.LD.miss_latency_hist_seqr::gmean   333.212380                       (Unspecified)
system.caches.RequestType.LD.miss_latency_hist_seqr::stdev   465.724740                       (Unspecified)
system.caches.RequestType.LD.miss_latency_hist_seqr |     3342494     85.79%     85.79% |      493605     12.67%     98.45% |       57517      1.48%     99.93% |        2576      0.07%    100.00% |         124      0.00%    100.00% |           3      0.00%    100.00% |           0      0.00%    100.00% |           0      0.00%    100.00% |           0      0.00%    100.00% |           0      0.00%    100.00% (Unspecified)
system.caches.RequestType.LD.miss_latency_hist_seqr::total      3896319                       (Unspecified)
system.caches.RequestType.ST.latency_hist_seqr::bucket_size          512                       (Unspecified)
system.caches.RequestType.ST.latency_hist_seqr::max_bucket         5119                       (Unspecified)
system.caches.RequestType.ST.latency_hist_seqr::samples      8862231                       (Unspecified)
system.caches.RequestType.ST.latency_hist_seqr::mean    22.995356                       (Unspecified)
system.caches.RequestType.ST.latency_hist_seqr::gmean     1.239348                       (Unspecified)
system.caches.RequestType.ST.latency_hist_seqr::stdev   145.037192                       (Unspecified)
system.caches.RequestType.ST.latency_hist_seqr |     8659938     97.72%     97.72% |      154975      1.75%     99.47% |       33649      0.38%     99.85% |        8891      0.10%     99.95% |        3372      0.04%     99.98% |        1281      0.01%    100.00% |         119      0.00%    100.00% |           6      0.00%    100.00% |           0      0.00%    100.00% |           0      0.00%    100.00% (Unspecified)
system.caches.RequestType.ST.latency_hist_seqr::total      8862231                       (Unspecified)
system.caches.RequestType.ST.hit_latency_hist_seqr::bucket_size          512                       (Unspecified)
system.caches.RequestType.ST.hit_latency_hist_seqr::max_bucket         5119                       (Unspecified)
system.caches.RequestType.ST.hit_latency_hist_seqr::samples      8564397                       (Unspecified)
system.caches.RequestType.ST.hit_latency_hist_seqr::mean     1.026113                       (Unspecified)
system.caches.RequestType.ST.hit_latency_hist_seqr::gmean     1.016157                       (Unspecified)
system.caches.RequestType.ST.hit_latency_hist_seqr::stdev     1.734278                       (Unspecified)
system.caches.RequestType.ST.hit_latency_hist_seqr |     8564379    100.00%    100.00% |          14      0.00%    100.00% |           1      0.00%    100.00% |           2      0.00%    100.00% |           0      0.00%    100.00% |           0      0.00%    100.00% |           1      0.00%    100.00% |           0      0.00%    100.00% |           0      0.00%    100.00% |           0      0.00%    100.00% (Unspecified)
system.caches.RequestType.ST.hit_latency_hist_seqr::total      8564397                       (Unspecified)
system.caches.RequestType.ST.miss_latency_hist_seqr::bucket_size          512                       (Unspecified)
system.caches.RequestType.ST.miss_latency_hist_seqr::max_bucket         5119                       (Unspecified)
system.caches.RequestType.ST.miss_latency_hist_seqr::samples       297834                       (Unspecified)
system.caches.RequestType.ST.miss_latency_hist_seqr::mean   654.734235                       (Unspecified)
system.caches.RequestType.ST.miss_latency_hist_seqr::gmean   373.989308                       (Unspecified)
system.caches.RequestType.ST.miss_latency_hist_seqr::stdev   461.382600                       (Unspecified)
system.caches.RequestType.ST.miss_latency_hist_seqr |       95559     32.08%     32.08% |      154961     52.03%     84.11% |       33648     11.30%     95.41% |        8889      2.98%     98.40% |        3372      1.13%     99.53% |        1281      0.43%     99.96% |         118      0.04%    100.00% |           6      0.00%    100.00% |           0      0.00%    100.00% |           0      0.00%    100.00% (Unspecified)
system.caches.RequestType.ST.miss_latency_hist_seqr::total       297834                       (Unspecified)
system.caches.RequestType.IFETCH.latency_hist_seqr::bucket_size          512                       (Unspecified)
system.caches.RequestType.IFETCH.latency_hist_seqr::max_bucket         5119                       (Unspecified)
system.caches.RequestType.IFETCH.latency_hist_seqr::samples     77095117                       (Unspecified)
system.caches.RequestType.IFETCH.latency_hist_seqr::mean     1.045581                       (Unspecified)
system.caches.RequestType.IFETCH.latency_hist_seqr::gmean     1.001551                       (Unspecified)
system.caches.RequestType.IFETCH.latency_hist_seqr::stdev     4.545679                       (Unspecified)
system.caches.RequestType.IFETCH.latency_hist_seqr |    77094086    100.00%    100.00% |         819      0.00%    100.00% |         151      0.00%    100.00% |          50      0.00%    100.00% |           5      0.00%    100.00% |           6      0.00%    100.00% |           0      0.00%    100.00% |           0      0.00%    100.00% |           0      0.00%    100.00% |           0      0.00%    100.00% (Unspecified)
system.caches.RequestType.IFETCH.latency_hist_seqr::total     77095117                       (Unspecified)
system.caches.RequestType.IFETCH.hit_latency_hist_seqr::bucket_size            1                       (Unspecified)
system.caches.RequestType.IFETCH.hit_latency_hist_seqr::max_bucket            9                       (Unspecified)
system.caches.RequestType.IFETCH.hit_latency_hist_seqr::samples     77060095                       (Unspecified)
system.caches.RequestType.IFETCH.hit_latency_hist_seqr::mean     1.000001                       (Unspecified)
system.caches.RequestType.IFETCH.hit_latency_hist_seqr::gmean     1.000000                       (Unspecified)
system.caches.RequestType.IFETCH.hit_latency_hist_seqr::stdev     0.000845                       (Unspecified)
[...]
system.o3Cpu7.iew.predictedTakenIncorrect       591163                       # Number of branches that were predicted taken incorrectly (Count)
system.o3Cpu7.iew.predictedNotTakenIncorrect       722100                       # Number of branches that were predicted not taken incorrectly (Count)
system.o3Cpu7.iew.branchMispredicts           1313263                       # Number of branch mispredicts detected at execute (Count)
system.o3Cpu7.iew.instsToCommit             130695366                       # Cumulative count of insts sent to commit (Count)
system.o3Cpu7.iew.writebackCount            130027752                       # Cumulative count of insts written-back (Count)
system.o3Cpu7.iew.producerInst              105604770                       # Number of instructions producing a value (Count)
system.o3Cpu7.iew.consumerInst              163814670                       # Number of instructions consuming a value (Count)
system.o3Cpu7.iew.wbRate                     0.672709                       # Insts written-back per cycle ((Count/Cycle))
system.o3Cpu7.iew.wbFanout                   0.644660                       # Average fanout of values written-back ((Count/Count))
system.o3Cpu7.interrupts.clk_domain.clock         3200                       # Clock period in ticks (Tick)
system.o3Cpu7.lsq0.forwLoads                   172497                       # Number of loads that had data forwarded from stores (Count)
system.o3Cpu7.lsq0.squashedLoads             15212679                       # Number of loads squashed (Count)
system.o3Cpu7.lsq0.ignoredResponses              7532                       # Number of memory responses ignored because the instruction is squashed (Count)
system.o3Cpu7.lsq0.memOrderViolation             2486                       # Number of memory ordering violations (Count)
system.o3Cpu7.lsq0.squashedStores             2084822                       # Number of stores squashed (Count)
system.o3Cpu7.lsq0.rescheduledLoads                47                       # Number of loads that were rescheduled (Count)
system.o3Cpu7.lsq0.blockedByCache              438445                       # Number of times an access to memory failed due to the cache being blocked (Count)
system.o3Cpu7.lsq0.loadToUse::samples         9738730                       # Distribution of cycle latency between the first time a load is issued and its completion (Unspecified)
system.o3Cpu7.lsq0.loadToUse::mean         108.684354                       # Distribution of cycle latency between the first time a load is issued and its completion (Unspecified)
system.o3Cpu7.lsq0.loadToUse::stdev        322.644063                       # Distribution of cycle latency between the first time a load is issued and its completion (Unspecified)
system.o3Cpu7.lsq0.loadToUse::0-9             8218835     84.39%     84.39% # Distribution of cycle latency between the first time a load is issued and its completion (Unspecified)
system.o3Cpu7.lsq0.loadToUse::10-19            195469      2.01%     86.40% # Distribution of cycle latency between the first time a load is issued and its completion (Unspecified)
system.o3Cpu7.lsq0.loadToUse::20-29             68712      0.71%     87.11% # Distribution of cycle latency between the first time a load is issued and its completion (Unspecified)
system.o3Cpu7.lsq0.loadToUse::30-39             24376      0.25%     87.36% # Distribution of cycle latency between the first time a load is issued and its completion (Unspecified)
system.o3Cpu7.lsq0.loadToUse::40-49             11463      0.12%     87.47% # Distribution of cycle latency between the first time a load is issued and its completion (Unspecified)
system.o3Cpu7.lsq0.loadToUse::50-59              7654      0.08%     87.55% # Distribution of cycle latency between the first time a load is issued and its completion (Unspecified)
system.o3Cpu7.lsq0.loadToUse::60-69              3533      0.04%     87.59% # Distribution of cycle latency between the first time a load is issued and its completion (Unspecified)
system.o3Cpu7.lsq0.loadToUse::70-79              2918      0.03%     87.62% # Distribution of cycle latency between the first time a load is issued and its completion (Unspecified)
system.o3Cpu7.lsq0.loadToUse::80-89              2607      0.03%     87.65% # Distribution of cycle latency between the first time a load is issued and its completion (Unspecified)
system.o3Cpu7.lsq0.loadToUse::90-99              2236      0.02%     87.67% # Distribution of cycle latency between the first time a load is issued and its completion (Unspecified)
system.o3Cpu7.lsq0.loadToUse::100-109            2182      0.02%     87.69% # Distribution of cycle latency between the first time a load is issued and its completion (Unspecified)
system.o3Cpu7.lsq0.loadToUse::110-119            2102      0.02%     87.71% # Distribution of cycle latency between the first time a load is issued and its completion (Unspecified)
system.o3Cpu7.lsq0.loadToUse::120-129            2211      0.02%     87.74% # Distribution of cycle latency between the first time a load is issued and its completion (Unspecified)
system.o3Cpu7.lsq0.loadToUse::130-139            2272      0.02%     87.76% # Distribution of cycle latency between the first time a load is issued and its completion (Unspecified)
system.o3Cpu7.lsq0.loadToUse::140-149            2544      0.03%     87.78% # Distribution of cycle latency between the first time a load is issued and its completion (Unspecified)
system.o3Cpu7.lsq0.loadToUse::150-159            2541      0.03%     87.81% # Distribution of cycle latency between the first time a load is issued and its completion (Unspecified)
system.o3Cpu7.lsq0.loadToUse::160-169            2728      0.03%     87.84% # Distribution of cycle latency between the first time a load is issued and its completion (Unspecified)
system.o3Cpu7.lsq0.loadToUse::170-179            3165      0.03%     87.87% # Distribution of cycle latency between the first time a load is issued and its completion (Unspecified)
system.o3Cpu7.lsq0.loadToUse::180-189            3393      0.03%     87.91% # Distribution of cycle latency between the first time a load is issued and its completion (Unspecified)
system.o3Cpu7.lsq0.loadToUse::190-199            3685      0.04%     87.94% # Distribution of cycle latency between the first time a load is issued and its completion (Unspecified)
system.o3Cpu7.lsq0.loadToUse::200-209            3924      0.04%     87.98% # Distribution of cycle latency between the first time a load is issued and its completion (Unspecified)
system.o3Cpu7.lsq0.loadToUse::210-219            4088      0.04%     88.03% # Distribution of cycle latency between the first time a load is issued and its completion (Unspecified)
system.o3Cpu7.lsq0.loadToUse::220-229            4080      0.04%     88.07% # Distribution of cycle latency between the first time a load is issued and its completion (Unspecified)
system.o3Cpu7.lsq0.loadToUse::230-239            4267      0.04%     88.11% # Distribution of cycle latency between the first time a load is issued and its completion (Unspecified)
system.o3Cpu7.lsq0.loadToUse::240-249            3856      0.04%     88.15% # Distribution of cycle latency between the first time a load is issued and its completion (Unspecified)
system.o3Cpu7.lsq0.loadToUse::250-259            3782      0.04%     88.19% # Distribution of cycle latency between the first time a load is issued and its completion (Unspecified)
system.o3Cpu7.lsq0.loadToUse::260-269            3608      0.04%     88.23% # Distribution of cycle latency between the first time a load is issued and its completion (Unspecified)
system.o3Cpu7.lsq0.loadToUse::270-279            3536      0.04%     88.26% # Distribution of cycle latency between the first time a load is issued and its completion (Unspecified)
system.o3Cpu7.lsq0.loadToUse::280-289            3235      0.03%     88.30% # Distribution of cycle latency between the first time a load is issued and its completion (Unspecified)
system.o3Cpu7.lsq0.loadToUse::290-299            2869      0.03%     88.33% # Distribution of cycle latency between the first time a load is issued and its completion (Unspecified)
system.o3Cpu7.lsq0.loadToUse::overflows       1136859     11.67%    100.00% # Distribution of cycle latency between the first time a load is issued and its completion (Unspecified)
system.o3Cpu7.lsq0.loadToUse::min_value             2                       # Distribution of cycle latency between the first time a load is issued and its completion (Unspecified)
system.o3Cpu7.lsq0.loadToUse::max_value          5029                       # Distribution of cycle latency between the first time a load is issued and its completion (Unspecified)
system.o3Cpu7.lsq0.loadToUse::total           9738730                       # Distribution of cycle latency between the first time a load is issued and its completion (Unspecified)
system.o3Cpu7.mmu.dtb.rdAccesses             18626731                       # TLB accesses on read requests (Count)
system.o3Cpu7.mmu.dtb.wrAccesses              1837944                       # TLB accesses on write requests (Count)
system.o3Cpu7.mmu.dtb.rdMisses                 519506                       # TLB misses on read requests (Count)
system.o3Cpu7.mmu.dtb.wrMisses                   1065                       # TLB misses on write requests (Count)
system.o3Cpu7.mmu.dtb.walker.power_state.pwrStateResidencyTicks::UNDEFINED  41473080199                       # Cumulative time (in ticks) in various power states (Tick)
system.o3Cpu7.mmu.itb.rdAccesses                    0                       # TLB accesses on read requests (Count)
system.o3Cpu7.mmu.itb.wrAccesses              9579273                       # TLB accesses on write requests (Count)
system.o3Cpu7.mmu.itb.rdMisses                      0                       # TLB misses on read requests (Count)
system.o3Cpu7.mmu.itb.wrMisses                    311                       # TLB misses on write requests (Count)
system.o3Cpu7.mmu.itb.walker.power_state.pwrStateResidencyTicks::UNDEFINED  41473080199                       # Cumulative time (in ticks) in various power states (Tick)
system.o3Cpu7.power_state.numTransitions            8                       # Number of power state transitions (Count)
system.o3Cpu7.power_state.ticksClkGated::samples            4                       # Distribution of time spent in the clock gated state (Tick)
system.o3Cpu7.power_state.ticksClkGated::mean    450672450                       # Distribution of time spent in the clock gated state (Tick)
system.o3Cpu7.power_state.ticksClkGated::stdev 400102716.468538                       # Distribution of time spent in the clock gated state (Tick)
system.o3Cpu7.power_state.ticksClkGated::1000-5e+10            4    100.00%    100.00% # Distribution of time spent in the clock gated state (Tick)
system.o3Cpu7.power_state.ticksClkGated::min_value     18446800                       # Distribution of time spent in the clock gated state (Tick)
system.o3Cpu7.power_state.ticksClkGated::max_value    971053000                       # Distribution of time spent in the clock gated state (Tick)
system.o3Cpu7.power_state.ticksClkGated::total            4                       # Distribution of time spent in the clock gated state (Tick)
system.o3Cpu7.power_state.pwrStateResidencyTicks::ON  30064860200                       # Cumulative time (in ticks) in various power states (Tick)
system.o3Cpu7.power_state.pwrStateResidencyTicks::CLK_GATED   1802689800                       # Cumulative time (in ticks) in various power states (Tick)
system.o3Cpu7.power_state.pwrStateResidencyTicks::OFF   9605530199                       # Cumulative time (in ticks) in various power states (Tick)
system.o3Cpu7.rename.squashCycles             1117982                       # Number of cycles rename is squashing (Cycle)
system.o3Cpu7.rename.idleCycles              20659631                       # Number of cycles rename is idle (Cycle)
system.o3Cpu7.rename.blockCycles             85572849                       # Number of cycles rename is blocking (Cycle)
system.o3Cpu7.rename.serializeStallCycles       241478                       # count of cycles rename stalled for serializing inst (Cycle)
system.o3Cpu7.rename.runCycles               14414297                       # Number of cycles rename is running (Cycle)
system.o3Cpu7.rename.unblockCycles            9734424                       # Number of cycles rename is unblocking (Cycle)
system.o3Cpu7.rename.renamedInsts           192851940                       # Number of instructions processed by rename (Count)
system.o3Cpu7.rename.ROBFullEvents             913754                       # Number of times rename has blocked due to ROB full (Count)
system.o3Cpu7.rename.IQFullEvents             2752004                       # Number of times rename has blocked due to IQ full (Count)
system.o3Cpu7.rename.LQFullEvents             2931241                       # Number of times rename has blocked due to LQ full (Count)
system.o3Cpu7.rename.SQFullEvents             3131922                       # Number of times rename has blocked due to SQ full (Count)
system.o3Cpu7.rename.renamedOperands        416497535                       # Number of destination operands rename has renamed (Count)
system.o3Cpu7.rename.lookups                717429162                       # Number of register rename lookups that rename has made (Count)
system.o3Cpu7.rename.intLookups             243027253                       # Number of integer rename lookups (Count)
system.o3Cpu7.rename.fpLookups                  43472                       # Number of floating rename lookups (Count)
system.o3Cpu7.rename.committedMaps          158733376                       # Number of HB maps that are committed (Count)
system.o3Cpu7.rename.undoneMaps             257763965                       # Number of HB maps that are undone due to squashing (Count)
system.o3Cpu7.rename.serializing                 2597                       # count of serializing insts renamed (Count)
system.o3Cpu7.rename.tempSerializing             2714                       # count of temporary serializing insts renamed (Count)
system.o3Cpu7.rename.skidInsts               24000493                       # count of insts added to the skid buffer (Count)
system.o3Cpu7.rob.reads                     300161081                       # The number of ROB reads (Count)
system.o3Cpu7.rob.writes                    362958303                       # The number of ROB writes (Count)
system.o3Cpu7.thread_0.numInsts              44567023                       # Number of Instructions committed (Count)
system.o3Cpu7.thread_0.numOps                74726145                       # Number of Ops committed (Count)
system.o3Cpu7.thread_0.numMemRefs                   0                       # Number of Memory References (Count)
system.pc.bad_addr.power_state.pwrStateResidencyTicks::UNDEFINED  41473080199                       # Cumulative time (in ticks) in various power states (Tick)
system.pc.com_1.power_state.pwrStateResidencyTicks::UNDEFINED  41473080199                       # Cumulative time (in ticks) in various power states (Tick)
system.pc.default_bus.power_state.pwrStateResidencyTicks::UNDEFINED  41473080199                       # Cumulative time (in ticks) in various power states (Tick)
system.pc.empty_isa.power_state.pwrStateResidencyTicks::UNDEFINED  41473080199                       # Cumulative time (in ticks) in various power states (Tick)
system.pc.fake_com_2.power_state.pwrStateResidencyTicks::UNDEFINED  41473080199                       # Cumulative time (in ticks) in various power states (Tick)
system.pc.fake_com_3.power_state.pwrStateResidencyTicks::UNDEFINED  41473080199                       # Cumulative time (in ticks) in various power states (Tick)
system.pc.fake_com_4.power_state.pwrStateResidencyTicks::UNDEFINED  41473080199                       # Cumulative time (in ticks) in various power states (Tick)
system.pc.fake_floppy.power_state.pwrStateResidencyTicks::UNDEFINED  41473080199                       # Cumulative time (in ticks) in various power states (Tick)
system.pc.pci_host.power_state.pwrStateResidencyTicks::UNDEFINED  41473080199                       # Cumulative time (in ticks) in various power states (Tick)
system.pc.south_bridge.cmos.power_state.pwrStateResidencyTicks::UNDEFINED  41473080199                       # Cumulative time (in ticks) in various power states (Tick)
system.pc.south_bridge.dma1.power_state.pwrStateResidencyTicks::UNDEFINED  41473080199                       # Cumulative time (in ticks) in various power states (Tick)
system.pc.south_bridge.ide.disks0.IdeDisk.dmaReadFullPages            0                       # Number of full page size DMA reads (not PRD). (Count)
system.pc.south_bridge.ide.disks0.IdeDisk.dmaReadBytes            0                       # Number of bytes transfered via DMA reads (not PRD). (Byte)
system.pc.south_bridge.ide.disks0.IdeDisk.dmaReadTxs            0                       # Number of DMA read transactions (not PRD). (Count)
system.pc.south_bridge.ide.disks0.IdeDisk.dmaWriteFullPages            0                       # Number of full page size DMA writes. (Count)
system.pc.south_bridge.ide.disks0.IdeDisk.dmaWriteBytes            0                       # Number of bytes transfered via DMA writes. (Byte)
system.pc.south_bridge.ide.disks0.IdeDisk.dmaWriteTxs            0                       # Number of DMA write transactions. (Count)
system.pc.south_bridge.ide.disks1.IdeDisk.dmaReadFullPages            0                       # Number of full page size DMA reads (not PRD). (Count)
system.pc.south_bridge.ide.disks1.IdeDisk.dmaReadBytes            0                       # Number of bytes transfered via DMA reads (not PRD). (Byte)
system.pc.south_bridge.ide.disks1.IdeDisk.dmaReadTxs            0                       # Number of DMA read transactions (not PRD). (Count)
system.pc.south_bridge.ide.disks1.IdeDisk.dmaWriteFullPages            0                       # Number of full page size DMA writes. (Count)
system.pc.south_bridge.ide.disks1.IdeDisk.dmaWriteBytes            0                       # Number of bytes transfered via DMA writes. (Byte)
system.pc.south_bridge.ide.disks1.IdeDisk.dmaWriteTxs            0                       # Number of DMA write transactions. (Count)
system.pc.south_bridge.ide.power_state.pwrStateResidencyTicks::UNDEFINED  41473080199                       # Cumulative time (in ticks) in various power states (Tick)
system.pc.south_bridge.io_apic.power_state.pwrStateResidencyTicks::UNDEFINED  41473080199                       # Cumulative time (in ticks) in various power states (Tick)
system.pc.south_bridge.keyboard.power_state.pwrStateResidencyTicks::UNDEFINED  41473080199                       # Cumulative time (in ticks) in various power states (Tick)
system.pc.south_bridge.pic1.power_state.pwrStateResidencyTicks::UNDEFINED  41473080199                       # Cumulative time (in ticks) in various power states (Tick)
system.pc.south_bridge.pic2.power_state.pwrStateResidencyTicks::UNDEFINED  41473080199                       # Cumulative time (in ticks) in various power states (Tick)
system.pc.south_bridge.pit.power_state.pwrStateResidencyTicks::UNDEFINED  41473080199                       # Cumulative time (in ticks) in various power states (Tick)
system.pc.south_bridge.speaker.power_state.pwrStateResidencyTicks::UNDEFINED  41473080199                       # Cumulative time (in ticks) in various power states (Tick)
system.workload.inst.arm                            0                       # number of arm instructions executed (Count)
system.workload.inst.quiesce                        0                       # number of quiesce instructions executed (Count)

---------- End Simulation Statistics   ----------
