
---------- Begin Simulation Statistics ----------
simSeconds                                   0.083626                       # Number of seconds simulated (Second)
simTicks                                  83626470200                       # Number of ticks simulated (Tick)
finalTick                                250776844445800                       # Number of ticks from beginning of simulation (restored from checkpoints and never reset) (Tick)
simFreq                                  1000000000000                       # The number of ticks per simulated second ((Tick/Second))
hostSeconds                                   6483.64                       # Real time elapsed on the host (Second)
hostTickRate                                 12898068                       # The number of ticks simulated per host second (ticks/s) ((Tick/Second))
hostMemory                                   19847488                       # Number of bytes of host memory used (Byte)
simInsts                                     57239331                       # Number of instructions simulated (Count)
simOps                                       93453267                       # Number of ops (including micro ops) simulated (Count)
hostInstRate                                     8828                       # Simulator instruction rate (inst/s) ((Count/Second))
hostOpRate                                      14414                       # Simulator op (including micro ops) rate (op/s) ((Count/Second))
system.caches.delayHistogram::bucket_size           16                       # delay histogram for all message (Unspecified)
system.caches.delayHistogram::max_bucket          159                       # delay histogram for all message (Unspecified)
system.caches.delayHistogram::samples        35211756                       # delay histogram for all message (Unspecified)
system.caches.delayHistogram::mean           0.610741                       # delay histogram for all message (Unspecified)
system.caches.delayHistogram::stdev          2.139966                       # delay histogram for all message (Unspecified)
system.caches.delayHistogram             |    35196347     99.96%     99.96% |       15204      0.04%    100.00% |         165      0.00%    100.00% |          22      0.00%    100.00% |          12      0.00%    100.00% |           6      0.00%    100.00% |           0      0.00%    100.00% |           0      0.00%    100.00% |           0      0.00%    100.00% |           0      0.00%    100.00% # delay histogram for all message (Unspecified)
system.caches.delayHistogram::total          35211756                       # delay histogram for all message (Unspecified)
system.caches.m_outstandReqHistSeqr::bucket_size            2                       (Unspecified)
system.caches.m_outstandReqHistSeqr::max_bucket           19                       (Unspecified)
system.caches.m_outstandReqHistSeqr::samples     35467112                       (Unspecified)
system.caches.m_outstandReqHistSeqr::mean     3.172088                       (Unspecified)
system.caches.m_outstandReqHistSeqr::gmean     2.288469                       (Unspecified)
system.caches.m_outstandReqHistSeqr::stdev     2.679905                       (Unspecified)
system.caches.m_outstandReqHistSeqr      |    14295977     40.31%     40.31% |     8610632     24.28%     64.59% |     5321902     15.01%     79.59% |     4811465     13.57%     93.16% |     1045529      2.95%     96.10% |     1127764      3.18%     99.28% |      139725      0.39%     99.68% |       65966      0.19%     99.86% |       48152      0.14%    100.00% |           0      0.00%    100.00% (Unspecified)
system.caches.m_outstandReqHistSeqr::total     35467112                       (Unspecified)
system.caches.m_latencyHistSeqr::bucket_size         1024                       (Unspecified)
system.caches.m_latencyHistSeqr::max_bucket        10239                       (Unspecified)
system.caches.m_latencyHistSeqr::samples     35473743                       (Unspecified)
system.caches.m_latencyHistSeqr::mean      163.372168                       (Unspecified)
system.caches.m_latencyHistSeqr::gmean       2.672671                       (Unspecified)
system.caches.m_latencyHistSeqr::stdev     462.051873                       (Unspecified)
system.caches.m_latencyHistSeqr          |    33019344     93.08%     93.08% |     2016960      5.69%     98.77% |      373061      1.05%     99.82% |       63633      0.18%    100.00% |         737      0.00%    100.00% |           8      0.00%    100.00% |           0      0.00%    100.00% |           0      0.00%    100.00% |           0      0.00%    100.00% |           0      0.00%    100.00% (Unspecified)
system.caches.m_latencyHistSeqr::total       35473743                       (Unspecified)
system.caches.m_hitLatencyHistSeqr::bucket_size          512                       (Unspecified)
system.caches.m_hitLatencyHistSeqr::max_bucket         5119                       (Unspecified)
system.caches.m_hitLatencyHistSeqr::samples     30358728                       (Unspecified)
system.caches.m_hitLatencyHistSeqr::mean     1.007677                       (Unspecified)
system.caches.m_hitLatencyHistSeqr::gmean     1.000269                       (Unspecified)
system.caches.m_hitLatencyHistSeqr::stdev     3.064112                       (Unspecified)
system.caches.m_hitLatencyHistSeqr       |    30358528    100.00%    100.00% |         121      0.00%    100.00% |          50      0.00%    100.00% |          15      0.00%    100.00% |           5      0.00%    100.00% |           9      0.00%    100.00% |           0      0.00%    100.00% |           0      0.00%    100.00% |           0      0.00%    100.00% |           0      0.00%    100.00% (Unspecified)
system.caches.m_hitLatencyHistSeqr::total     30358728                       (Unspecified)
system.caches.m_missLatencyHistSeqr::bucket_size         1024                       (Unspecified)
system.caches.m_missLatencyHistSeqr::max_bucket        10239                       (Unspecified)
system.caches.m_missLatencyHistSeqr::samples      5115015                       (Unspecified)
system.caches.m_missLatencyHistSeqr::mean  1127.040779                       (Unspecified)
system.caches.m_missLatencyHistSeqr::gmean   912.570955                       (Unspecified)
system.caches.m_missLatencyHistSeqr::stdev   628.835917                       (Unspecified)
system.caches.m_missLatencyHistSeqr      |     2660695     52.02%     52.02% |     2016895     39.43%     91.45% |      373047      7.29%     98.74% |       63633      1.24%     99.99% |         737      0.01%    100.00% |           8      0.00%    100.00% |           0      0.00%    100.00% |           0      0.00%    100.00% |           0      0.00%    100.00% |           0      0.00%    100.00% (Unspecified)
system.caches.m_missLatencyHistSeqr::total      5115015                       (Unspecified)
system.caches.delayVCHist.vnet_0::bucket_size           16                       # delay histogram for vnet_0 (Unspecified)
system.caches.delayVCHist.vnet_0::max_bucket          159                       # delay histogram for vnet_0 (Unspecified)
system.caches.delayVCHist.vnet_0::samples     15026302                       # delay histogram for vnet_0 (Unspecified)
system.caches.delayVCHist.vnet_0::mean       1.389357                       # delay histogram for vnet_0 (Unspecified)
system.caches.delayVCHist.vnet_0::stdev      3.064953                       # delay histogram for vnet_0 (Unspecified)
system.caches.delayVCHist.vnet_0         |    15012941     99.91%     99.91% |       13210      0.09%    100.00% |         111      0.00%    100.00% |          22      0.00%    100.00% |          12      0.00%    100.00% |           6      0.00%    100.00% |           0      0.00%    100.00% |           0      0.00%    100.00% |           0      0.00%    100.00% |           0      0.00%    100.00% # delay histogram for vnet_0 (Unspecified)
system.caches.delayVCHist.vnet_0::total      15026302                       # delay histogram for vnet_0 (Unspecified)
system.caches.delayVCHist.vnet_1::bucket_size            8                       # delay histogram for vnet_1 (Unspecified)
system.caches.delayVCHist.vnet_1::max_bucket           79                       # delay histogram for vnet_1 (Unspecified)
system.caches.delayVCHist.vnet_1::samples     20090706                       # delay histogram for vnet_1 (Unspecified)
system.caches.delayVCHist.vnet_1::mean       0.031276                       # delay histogram for vnet_1 (Unspecified)
system.caches.delayVCHist.vnet_1::stdev      0.457411                       # delay histogram for vnet_1 (Unspecified)
system.caches.delayVCHist.vnet_1         |    20075911     99.93%     99.93% |       12747      0.06%     99.99% |        1627      0.01%    100.00% |         367      0.00%    100.00% |          50      0.00%    100.00% |           4      0.00%    100.00% |           0      0.00%    100.00% |           0      0.00%    100.00% |           0      0.00%    100.00% |           0      0.00%    100.00% # delay histogram for vnet_1 (Unspecified)
system.caches.delayVCHist.vnet_1::total      20090706                       # delay histogram for vnet_1 (Unspecified)
system.caches.delayVCHist.vnet_2::bucket_size            1                       # delay histogram for vnet_2 (Unspecified)
system.caches.delayVCHist.vnet_2::max_bucket            9                       # delay histogram for vnet_2 (Unspecified)
system.caches.delayVCHist.vnet_2::samples        94748                       # delay histogram for vnet_2 (Unspecified)
system.caches.delayVCHist.vnet_2::mean       0.000190                       # delay histogram for vnet_2 (Unspecified)
system.caches.delayVCHist.vnet_2::stdev      0.019492                       # delay histogram for vnet_2 (Unspecified)
system.caches.delayVCHist.vnet_2         |       94739     99.99%     99.99% |           0      0.00%     99.99% |           9      0.01%    100.00% |           0      0.00%    100.00% |           0      0.00%    100.00% |           0      0.00%    100.00% |           0      0.00%    100.00% |           0      0.00%    100.00% |           0      0.00%    100.00% |           0      0.00%    100.00% # delay histogram for vnet_2 (Unspecified)
system.caches.delayVCHist.vnet_2::total         94748                       # delay histogram for vnet_2 (Unspecified)
system.caches.L1Cache_Controller.Load    |      721064     12.70%     12.70% |      707769     12.47%     25.17% |      717303     12.64%     37.81% |      709125     12.49%     50.30% |      701991     12.37%     62.67% |      710545     12.52%     75.18% |      703698     12.40%     87.58% |      704978     12.42%    100.00% (Unspecified)
system.caches.L1Cache_Controller.Load::total      5676473                       (Unspecified)
system.caches.L1Cache_Controller.Ifetch  |     1164445     12.53%     12.53% |     1292683     13.91%     26.43% |     1177656     12.67%     39.10% |     1116262     12.01%     51.11% |     1077576     11.59%     62.71% |     1169685     12.58%     75.29% |     1217070     13.09%     88.38% |     1079835     11.62%    100.00% (Unspecified)
system.caches.L1Cache_Controller.Ifetch::total      9295212                       (Unspecified)
system.caches.L1Cache_Controller.Store   |     2557728     12.48%     12.48% |     2574611     12.56%     25.03% |     2569331     12.53%     37.57% |     2555592     12.47%     50.03% |     2544443     12.41%     62.44% |     2573445     12.55%     74.99% |     2571287     12.54%     87.53% |     2555632     12.47%    100.00% (Unspecified)
system.caches.L1Cache_Controller.Store::total     20502069                       (Unspecified)
system.caches.L1Cache_Controller.Inv     |       12716     13.63%     13.63% |       13144     14.09%     27.73% |       12989     13.93%     41.65% |       11835     12.69%     54.34% |        9742     10.44%     64.78% |        9651     10.35%     75.13% |        9785     10.49%     85.62% |       13411     14.38%    100.00% (Unspecified)
system.caches.L1Cache_Controller.Inv::total        93273                       (Unspecified)
system.caches.L1Cache_Controller.L1_Replacement |      633563     12.49%     12.49% |      632505     12.47%     24.96% |      635144     12.52%     37.47% |      633379     12.48%     49.96% |      632199     12.46%     62.42% |      636976     12.56%     74.98% |      634515     12.51%     87.48% |      635032     12.52%    100.00% (Unspecified)
system.caches.L1Cache_Controller.L1_Replacement::total      5073313                       (Unspecified)
system.caches.L1Cache_Controller.Fwd_GETX |           0      0.00%      0.00% |           4     50.00%     50.00% |           2     25.00%     75.00% |           2     25.00%    100.00% |           0      0.00%    100.00% |           0      0.00%    100.00% |           0      0.00%    100.00% |           0      0.00%    100.00% (Unspecified)
system.caches.L1Cache_Controller.Fwd_GETX::total            8                       (Unspecified)
system.caches.L1Cache_Controller.Fwd_GETS |         953     64.96%     64.96% |         257     17.52%     82.48% |         116      7.91%     90.39% |          72      4.91%     95.30% |          29      1.98%     97.27% |          26      1.77%     99.05% |           8      0.55%     99.59% |           6      0.41%    100.00% (Unspecified)
system.caches.L1Cache_Controller.Fwd_GETS::total         1467                       (Unspecified)
system.caches.L1Cache_Controller.Data    |         162    100.00%    100.00% |           0      0.00%    100.00% |           0      0.00%    100.00% |           0      0.00%    100.00% |           0      0.00%    100.00% |           0      0.00%    100.00% |           0      0.00%    100.00% |           0      0.00%    100.00% (Unspecified)
system.caches.L1Cache_Controller.Data::total          162                       (Unspecified)
system.caches.L1Cache_Controller.Data_Exclusive |      300623     12.44%     12.44% |      299654     12.39%     24.83% |      302588     12.52%     37.35% |      302691     12.52%     49.87% |      302683     12.52%     62.39% |      303643     12.56%     74.95% |      301601     12.48%     87.42% |      304066     12.58%    100.00% (Unspecified)
system.caches.L1Cache_Controller.Data_Exclusive::total      2417549                       (Unspecified)
system.caches.L1Cache_Controller.DataS_fromL1 |          67      4.57%      4.57% |         707     48.19%     52.76% |         408     27.81%     80.57% |          87      5.93%     86.50% |          57      3.89%     90.39% |          64      4.36%     94.75% |          58      3.95%     98.70% |          19      1.30%    100.00% (Unspecified)
system.caches.L1Cache_Controller.DataS_fromL1::total         1467                       (Unspecified)
system.caches.L1Cache_Controller.Data_all_Acks |      338240     12.55%     12.55% |      337373     12.52%     25.06% |      337320     12.51%     37.58% |      335758     12.46%     50.03% |      334574     12.41%     62.45% |      338350     12.55%     75.00% |      337955     12.54%     87.54% |      335999     12.46%    100.00% (Unspecified)
system.caches.L1Cache_Controller.Data_all_Acks::total      2695569                       (Unspecified)
system.caches.L1Cache_Controller.Ack     |        1734    100.00%    100.00% |           0      0.00%    100.00% |           0      0.00%    100.00% |           0      0.00%    100.00% |           0      0.00%    100.00% |           0      0.00%    100.00% |           0      0.00%    100.00% |           0      0.00%    100.00% (Unspecified)
system.caches.L1Cache_Controller.Ack::total         1734                       (Unspecified)
system.caches.L1Cache_Controller.Ack_all |         430    100.00%    100.00% |           0      0.00%    100.00% |           0      0.00%    100.00% |           0      0.00%    100.00% |           0      0.00%    100.00% |           0      0.00%    100.00% |           0      0.00%    100.00% |           0      0.00%    100.00% (Unspecified)
system.caches.L1Cache_Controller.Ack_all::total          430                       (Unspecified)
system.caches.L1Cache_Controller.WB_Ack  |      615105     12.48%     12.48% |      613488     12.45%     24.93% |      615156     12.48%     37.41% |      615179     12.48%     49.89% |      616117     12.50%     62.39% |      620419     12.59%     74.97% |      617763     12.53%     87.51% |      615855     12.49%    100.00% (Unspecified)
system.caches.L1Cache_Controller.WB_Ack::total      4929082                       (Unspecified)
system.caches.L1Cache_Controller.NP.Load |      306040     12.42%     12.42% |      305324     12.39%     24.81% |      308417     12.52%     37.33% |      308553     12.52%     49.85% |      308574     12.52%     62.37% |      309734     12.57%     74.94% |      307536     12.48%     87.42% |      310004     12.58%    100.00% (Unspecified)
system.caches.L1Cache_Controller.NP.Load::total      2464182                       (Unspecified)
system.caches.L1Cache_Controller.NP.Ifetch |        8956     19.22%     19.22% |        5204     11.17%     30.38% |        5426     11.64%     42.03% |        5271     11.31%     53.34% |        5448     11.69%     65.03% |        5425     11.64%     76.67% |        5426     11.64%     88.31% |        5446     11.69%    100.00% (Unspecified)
system.caches.L1Cache_Controller.NP.Ifetch::total        46602                       (Unspecified)
system.caches.L1Cache_Controller.NP.Store |      318703     12.44%     12.44% |      322010     12.56%     25.00% |      321332     12.54%     37.54% |      319613     12.47%     50.01% |      318209     12.42%     62.42% |      321849     12.56%     74.98% |      321585     12.55%     87.53% |      319616     12.47%    100.00% (Unspecified)
system.caches.L1Cache_Controller.NP.Store::total      2562917                       (Unspecified)
system.caches.L1Cache_Controller.NP.Inv  |        2600     13.63%     13.63% |        2306     12.09%     25.72% |        2354     12.34%     38.06% |        2334     12.24%     50.30% |        2349     12.31%     62.61% |        2405     12.61%     75.22% |        2368     12.41%     87.63% |        2359     12.37%    100.00% (Unspecified)
system.caches.L1Cache_Controller.NP.Inv::total        19075                       (Unspecified)
system.caches.L1Cache_Controller.I.Load  |           1      0.21%      0.21% |         163     34.32%     34.53% |         123     25.89%     60.42% |          71     14.95%     75.37% |          69     14.53%     89.89% |          27      5.68%     95.58% |          11      2.32%     97.89% |          10      2.11%    100.00% (Unspecified)
system.caches.L1Cache_Controller.I.Load::total          475                       (Unspecified)
system.caches.L1Cache_Controller.I.Ifetch |        5394     13.29%     13.29% |        5035     12.41%     25.70% |        5019     12.37%     38.07% |        5030     12.39%     50.46% |        5014     12.36%     62.82% |        5023     12.38%     75.19% |        5057     12.46%     87.65% |        5010     12.35%    100.00% (Unspecified)
system.caches.L1Cache_Controller.I.Ifetch::total        40582                       (Unspecified)
system.caches.L1Cache_Controller.I.L1_Replacement |        4749      8.36%      8.36% |        8660     15.25%     23.61% |        9413     16.57%     40.18% |        7822     13.77%     53.96% |        5536      9.75%     63.70% |        5823     10.25%     73.96% |        6178     10.88%     84.83% |        8614     15.17%    100.00% (Unspecified)
system.caches.L1Cache_Controller.I.L1_Replacement::total        56795                       (Unspecified)
system.caches.L1Cache_Controller.S.Load  |       20954      9.45%      9.45% |       36904     16.64%     26.09% |       37296     16.82%     42.92% |       31017     13.99%     56.90% |       30210     13.63%     70.53% |       23936     10.80%     81.32% |       20268      9.14%     90.47% |       21139      9.53%    100.00% (Unspecified)
system.caches.L1Cache_Controller.S.Load::total       221724                       (Unspecified)
system.caches.L1Cache_Controller.S.Ifetch |     1150095     12.49%     12.49% |     1282444     13.93%     26.42% |     1167211     12.68%     39.09% |     1105961     12.01%     51.10% |     1067114     11.59%     62.69% |     1159237     12.59%     75.28% |     1206587     13.10%     88.39% |     1069379     11.61%    100.00% (Unspecified)
system.caches.L1Cache_Controller.S.Ifetch::total      9208028                       (Unspecified)
system.caches.L1Cache_Controller.S.Store |         268    100.00%    100.00% |           0      0.00%    100.00% |           0      0.00%    100.00% |           0      0.00%    100.00% |           0      0.00%    100.00% |           0      0.00%    100.00% |           0      0.00%    100.00% |           0      0.00%    100.00% (Unspecified)
system.caches.L1Cache_Controller.S.Store::total          268                       (Unspecified)
system.caches.L1Cache_Controller.S.Inv   |        6509     14.03%     14.03% |        5770     12.44%     26.47% |        5724     12.34%     38.81% |        5714     12.32%     51.13% |        5695     12.28%     63.41% |        5653     12.19%     75.60% |        5670     12.22%     87.82% |        5650     12.18%    100.00% (Unspecified)
system.caches.L1Cache_Controller.S.Inv::total        46385                       (Unspecified)
system.caches.L1Cache_Controller.S.L1_Replacement |       13709     15.68%     15.68% |       10357     11.85%     27.52% |       10575     12.09%     39.62% |       10378     11.87%     51.49% |       10546     12.06%     63.55% |       10734     12.28%     75.83% |       10574     12.09%     87.92% |       10563     12.08%    100.00% (Unspecified)
system.caches.L1Cache_Controller.S.L1_Replacement::total        87436                       (Unspecified)
system.caches.L1Cache_Controller.E.Load  |      358863     12.71%     12.71% |      346552     12.27%     24.98% |      352871     12.49%     37.47% |      350895     12.42%     49.89% |      344660     12.20%     62.09% |      358206     12.68%     74.78% |      357278     12.65%     87.43% |      355153     12.57%    100.00% (Unspecified)
system.caches.L1Cache_Controller.E.Load::total      2824478                       (Unspecified)
system.caches.L1Cache_Controller.E.Store |        1297     17.80%     17.80% |         861     11.82%     29.61% |         859     11.79%     41.40% |         859     11.79%     53.19% |         853     11.71%     64.90% |         852     11.69%     76.59% |         852     11.69%     88.28% |         854     11.72%    100.00% (Unspecified)
system.caches.L1Cache_Controller.E.Store::total         7287                       (Unspecified)
system.caches.L1Cache_Controller.E.Inv   |        1705     15.72%     15.72% |        1494     13.77%     29.49% |        1160     10.69%     40.19% |        2586     23.84%     64.03% |        1055      9.73%     73.75% |         903      8.32%     82.08% |         826      7.62%     89.69% |        1118     10.31%    100.00% (Unspecified)
system.caches.L1Cache_Controller.E.Inv::total        10847                       (Unspecified)
system.caches.L1Cache_Controller.E.L1_Replacement |      295244     12.38%     12.38% |      295236     12.38%     24.76% |      298534     12.52%     37.27% |      297760     12.48%     49.76% |      299279     12.55%     62.31% |      300239     12.59%     74.89% |      298288     12.51%     87.40% |      300511     12.60%    100.00% (Unspecified)
system.caches.L1Cache_Controller.E.L1_Replacement::total      2385091                       (Unspecified)
system.caches.L1Cache_Controller.E.Fwd_GETX |           0      0.00%      0.00% |           4     50.00%     50.00% |           2     25.00%     75.00% |           2     25.00%    100.00% |           0      0.00%    100.00% |           0      0.00%    100.00% |           0      0.00%    100.00% |           0      0.00%    100.00% (Unspecified)
system.caches.L1Cache_Controller.E.Fwd_GETX::total            8                       (Unspecified)
system.caches.L1Cache_Controller.E.Fwd_GETS |         419     44.91%     44.91% |         257     27.55%     72.45% |         116     12.43%     84.89% |          72      7.72%     92.60% |          29      3.11%     95.71% |          26      2.79%     98.50% |           8      0.86%     99.36% |           6      0.64%    100.00% (Unspecified)
system.caches.L1Cache_Controller.E.Fwd_GETS::total          933                       (Unspecified)
system.caches.L1Cache_Controller.M.Load  |       35206     21.26%     21.26% |       18826     11.37%     32.63% |       18596     11.23%     43.85% |       18589     11.22%     55.08% |       18478     11.16%     66.24% |       18642     11.26%     77.49% |       18605     11.23%     88.73% |       18672     11.27%    100.00% (Unspecified)
system.caches.L1Cache_Controller.M.Load::total       165614                       (Unspecified)
system.caches.L1Cache_Controller.M.Store |     2237460     12.48%     12.48% |     2251740     12.56%     25.04% |     2247140     12.53%     37.57% |     2235120     12.46%     50.03% |     2225381     12.41%     62.44% |     2250744     12.55%     74.99% |     2248850     12.54%     87.54% |     2235162     12.46%    100.00% (Unspecified)
system.caches.L1Cache_Controller.M.Store::total     17931597                       (Unspecified)
system.caches.L1Cache_Controller.M.Inv   |        1901     11.27%     11.27% |        3564     21.12%     32.39% |        3728     22.09%     54.48% |        1180      6.99%     61.47% |         624      3.70%     65.17% |         680      4.03%     69.20% |         919      5.45%     74.64% |        4279     25.36%    100.00% (Unspecified)
system.caches.L1Cache_Controller.M.Inv::total        16875                       (Unspecified)
system.caches.L1Cache_Controller.M.L1_Replacement |      319861     12.57%     12.57% |      318252     12.51%     25.08% |      316622     12.45%     37.53% |      317419     12.48%     50.01% |      316838     12.45%     62.46% |      320180     12.59%     75.05% |      319475     12.56%     87.60% |      315344     12.40%    100.00% (Unspecified)
system.caches.L1Cache_Controller.M.L1_Replacement::total      2543991                       (Unspecified)
system.caches.L1Cache_Controller.M.Fwd_GETS |         534    100.00%    100.00% |           0      0.00%    100.00% |           0      0.00%    100.00% |           0      0.00%    100.00% |           0      0.00%    100.00% |           0      0.00%    100.00% |           0      0.00%    100.00% |           0      0.00%    100.00% (Unspecified)
system.caches.L1Cache_Controller.M.Fwd_GETS::total          534                       (Unspecified)
system.caches.L1Cache_Controller.IS.Inv  |           0      0.00%      0.00% |          10     11.24%     11.24% |          23     25.84%     37.08% |          21     23.60%     60.67% |          19     21.35%     82.02% |          10     11.24%     93.26% |           2      2.25%     95.51% |           4      4.49%    100.00% (Unspecified)
system.caches.L1Cache_Controller.IS.Inv::total           89                       (Unspecified)
system.caches.L1Cache_Controller.IS.Data_Exclusive |      300623     12.44%     12.44% |      299654     12.39%     24.83% |      302588     12.52%     37.35% |      302691     12.52%     49.87% |      302683     12.52%     62.39% |      303643     12.56%     74.95% |      301601     12.48%     87.42% |      304066     12.58%    100.00% (Unspecified)
system.caches.L1Cache_Controller.IS.Data_Exclusive::total      2417549                       (Unspecified)
system.caches.L1Cache_Controller.IS.DataS_fromL1 |          67      4.57%      4.57% |         707     48.19%     52.76% |         408     27.81%     80.57% |          87      5.93%     86.50% |          57      3.89%     90.39% |          64      4.36%     94.75% |          58      3.95%     98.70% |          19      1.30%    100.00% (Unspecified)
system.caches.L1Cache_Controller.IS.DataS_fromL1::total         1467                       (Unspecified)
system.caches.L1Cache_Controller.IS.Data_all_Acks |       19700     14.84%     14.84% |       15354     11.57%     26.41% |       15966     12.03%     38.44% |       16125     12.15%     50.59% |       16346     12.32%     62.90% |       16492     12.43%     75.33% |       16369     12.33%     87.66% |       16380     12.34%    100.00% (Unspecified)
system.caches.L1Cache_Controller.IS.Data_all_Acks::total       132732                       (Unspecified)
system.caches.L1Cache_Controller.IM.Data |         162    100.00%    100.00% |           0      0.00%    100.00% |           0      0.00%    100.00% |           0      0.00%    100.00% |           0      0.00%    100.00% |           0      0.00%    100.00% |           0      0.00%    100.00% |           0      0.00%    100.00% (Unspecified)
system.caches.L1Cache_Controller.IM.Data::total          162                       (Unspecified)
system.caches.L1Cache_Controller.IM.Data_all_Acks |      318540     12.43%     12.43% |      322009     12.56%     24.99% |      321331     12.54%     37.53% |      319612     12.47%     50.00% |      318209     12.42%     62.42% |      321848     12.56%     74.98% |      321584     12.55%     87.53% |      319615     12.47%    100.00% (Unspecified)
system.caches.L1Cache_Controller.IM.Data_all_Acks::total      2562748                       (Unspecified)
system.caches.L1Cache_Controller.SM.Ack  |        1734    100.00%    100.00% |           0      0.00%    100.00% |           0      0.00%    100.00% |           0      0.00%    100.00% |           0      0.00%    100.00% |           0      0.00%    100.00% |           0      0.00%    100.00% |           0      0.00%    100.00% (Unspecified)
system.caches.L1Cache_Controller.SM.Ack::total         1734                       (Unspecified)
system.caches.L1Cache_Controller.SM.Ack_all |         430    100.00%    100.00% |           0      0.00%    100.00% |           0      0.00%    100.00% |           0      0.00%    100.00% |           0      0.00%    100.00% |           0      0.00%    100.00% |           0      0.00%    100.00% |           0      0.00%    100.00% (Unspecified)
system.caches.L1Cache_Controller.SM.Ack_all::total          430                       (Unspecified)
system.caches.L1Cache_Controller.IS_I.Data_all_Acks |           0      0.00%      0.00% |          10     11.24%     11.24% |          23     25.84%     37.08% |          21     23.60%     60.67% |          19     21.35%     82.02% |          10     11.24%     93.26% |           2      2.25%     95.51% |           4      4.49%    100.00% (Unspecified)
system.caches.L1Cache_Controller.IS_I.Data_all_Acks::total           89                       (Unspecified)
system.caches.L1Cache_Controller.M_I.Inv |           1     50.00%     50.00% |           0      0.00%     50.00% |           0      0.00%     50.00% |           0      0.00%     50.00% |           0      0.00%     50.00% |           0      0.00%     50.00% |           0      0.00%     50.00% |           1     50.00%    100.00% (Unspecified)
system.caches.L1Cache_Controller.M_I.Inv::total            2                       (Unspecified)
system.caches.L1Cache_Controller.M_I.WB_Ack |      615104     12.48%     12.48% |      613488     12.45%     24.93% |      615156     12.48%     37.41% |      615179     12.48%     49.89% |      616117     12.50%     62.39% |      620419     12.59%     74.97% |      617763     12.53%     87.51% |      615854     12.49%    100.00% (Unspecified)
system.caches.L1Cache_Controller.M_I.WB_Ack::total      4929080                       (Unspecified)
system.caches.L1Cache_Controller.SINK_WB_ACK.WB_Ack |           1     50.00%     50.00% |           0      0.00%     50.00% |           0      0.00%     50.00% |           0      0.00%     50.00% |           0      0.00%     50.00% |           0      0.00%     50.00% |           0      0.00%     50.00% |           1     50.00%    100.00% (Unspecified)
system.caches.L1Cache_Controller.SINK_WB_ACK.WB_Ack::total            2                       (Unspecified)
system.caches.Directory_Controller.Fetch |        9137      0.18%      0.18% |     4966804     99.82%    100.00% (Unspecified)
system.caches.Directory_Controller.Fetch::total      4975941                       (Unspecified)
system.caches.Directory_Controller.Data  |         498      0.02%      0.02% |     2592893     99.98%    100.00% (Unspecified)
system.caches.Directory_Controller.Data::total      2593391                       (Unspecified)
system.caches.Directory_Controller.Memory_Data |        9137      0.18%      0.18% |     4966793     99.82%    100.00% (Unspecified)
system.caches.Directory_Controller.Memory_Data::total      4975930                       (Unspecified)
system.caches.Directory_Controller.Memory_Ack |         498      0.02%      0.02% |     2592891     99.98%    100.00% (Unspecified)
system.caches.Directory_Controller.Memory_Ack::total      2593389                       (Unspecified)
system.caches.Directory_Controller.CleanReplacement |        8469      0.36%      0.36% |     2374081     99.64%    100.00% (Unspecified)
system.caches.Directory_Controller.CleanReplacement::total      2382550                       (Unspecified)
system.caches.Directory_Controller.I.Fetch |        9137      0.18%      0.18% |     4966804     99.82%    100.00% (Unspecified)
system.caches.Directory_Controller.I.Fetch::total      4975941                       (Unspecified)
system.caches.Directory_Controller.M.Data |         498      0.02%      0.02% |     2592893     99.98%    100.00% (Unspecified)
system.caches.Directory_Controller.M.Data::total      2593391                       (Unspecified)
system.caches.Directory_Controller.M.CleanReplacement |        8469      0.36%      0.36% |     2374081     99.64%    100.00% (Unspecified)
system.caches.Directory_Controller.M.CleanReplacement::total      2382550                       (Unspecified)
system.caches.Directory_Controller.IM.Memory_Data |        9137      0.18%      0.18% |     4966793     99.82%    100.00% (Unspecified)
system.caches.Directory_Controller.IM.Memory_Data::total      4975930                       (Unspecified)
system.caches.Directory_Controller.MI.Memory_Ack |         498      0.02%      0.02% |     2592891     99.98%    100.00% (Unspecified)
system.caches.Directory_Controller.MI.Memory_Ack::total      2593389                       (Unspecified)
system.caches.L2Cache_Controller.L1_GET_INSTR |       10860     12.45%     12.45% |       12749     14.62%     27.07% |        9794     11.23%     38.30% |        7183      8.24%     46.54% |       11301     12.96%     59.49% |       12474     14.30%     73.79% |       11712     13.43%     87.22% |       11143     12.78%    100.00% (Unspecified)
system.caches.L2Cache_Controller.L1_GET_INSTR::total        87216                       (Unspecified)
system.caches.L2Cache_Controller.L1_GETS |      313639     12.72%     12.72% |      310414     12.59%     25.31% |      309108     12.54%     37.85% |      306715     12.44%     50.29% |      306153     12.42%     62.71% |      304936     12.37%     75.08% |      305810     12.40%     87.48% |      308647     12.52%    100.00% (Unspecified)
system.caches.L2Cache_Controller.L1_GETS::total      2465422                       (Unspecified)
system.caches.L2Cache_Controller.L1_GETX |      321071     12.53%     12.53% |      320811     12.52%     25.04% |      318352     12.42%     37.47% |      319627     12.47%     49.94% |      319446     12.46%     62.40% |      322420     12.58%     74.98% |      320308     12.50%     87.48% |      320893     12.52%    100.00% (Unspecified)
system.caches.L2Cache_Controller.L1_GETX::total      2562928                       (Unspecified)
system.caches.L2Cache_Controller.L1_UPGRADE |           0      0.00%      0.00% |          74     21.14%     21.14% |           0      0.00%     21.14% |           0      0.00%     21.14% |           0      0.00%     21.14% |           0      0.00%     21.14% |         276     78.86%    100.00% |           0      0.00%    100.00% (Unspecified)
system.caches.L2Cache_Controller.L1_UPGRADE::total          350                       (Unspecified)
system.caches.L2Cache_Controller.L1_PUTX |      616677     12.51%     12.51% |      617490     12.53%     25.04% |      614748     12.47%     37.51% |      614970     12.48%     49.99% |      615058     12.48%     62.46% |      617446     12.53%     74.99% |      615987     12.50%     87.49% |      616704     12.51%    100.00% (Unspecified)
system.caches.L2Cache_Controller.L1_PUTX::total      4929080                       (Unspecified)
system.caches.L2Cache_Controller.L1_PUTX_old |           0      0.00%      0.00% |           0      0.00%      0.00% |           2     50.00%     50.00% |           0      0.00%     50.00% |           2     50.00%    100.00% |           0      0.00%    100.00% |           0      0.00%    100.00% |           0      0.00%    100.00% (Unspecified)
system.caches.L2Cache_Controller.L1_PUTX_old::total            4                       (Unspecified)
system.caches.L2Cache_Controller.L2_Replacement |      322812     12.53%     12.53% |      321701     12.49%     25.01% |      320511     12.44%     37.45% |      321755     12.49%     49.94% |      321142     12.46%     62.40% |      323681     12.56%     74.96% |      321931     12.49%     87.46% |      323148     12.54%    100.00% (Unspecified)
system.caches.L2Cache_Controller.L2_Replacement::total      2576681                       (Unspecified)
system.caches.L2Cache_Controller.L2_Replacement_clean |      300707     12.53%     12.53% |      301430     12.56%     25.10% |      298708     12.45%     37.55% |      299374     12.48%     50.02% |      299971     12.50%     62.53% |      299653     12.49%     75.02% |      299925     12.50%     87.52% |      299492     12.48%    100.00% (Unspecified)
system.caches.L2Cache_Controller.L2_Replacement_clean::total      2399260                       (Unspecified)
system.caches.L2Cache_Controller.Mem_Data |      623517     12.53%     12.53% |      623129     12.52%     25.05% |      619218     12.44%     37.50% |      621129     12.48%     49.98% |      621112     12.48%     62.46% |      623332     12.53%     74.99% |      621855     12.50%     87.49% |      622638     12.51%    100.00% (Unspecified)
system.caches.L2Cache_Controller.Mem_Data::total      4975930                       (Unspecified)
system.caches.L2Cache_Controller.Mem_Ack |      623519     12.53%     12.53% |      623131     12.52%     25.05% |      619219     12.44%     37.50% |      621129     12.48%     49.98% |      621113     12.48%     62.46% |      623334     12.53%     74.99% |      621855     12.50%     87.49% |      622639     12.51%    100.00% (Unspecified)
system.caches.L2Cache_Controller.Mem_Ack::total      4975939                       (Unspecified)
system.caches.L2Cache_Controller.WB_Data |        2567     14.74%     14.74% |        2410     13.84%     28.59% |        1381      7.93%     36.52% |        2155     12.38%     48.89% |        2027     11.64%     60.54% |        2376     13.65%     74.18% |        2322     13.34%     87.52% |        2173     12.48%    100.00% (Unspecified)
system.caches.L2Cache_Controller.WB_Data::total        17411                       (Unspecified)
system.caches.L2Cache_Controller.WB_Data_clean |         203     21.76%     21.76% |         151     16.18%     37.94% |         140     15.01%     52.95% |          90      9.65%     62.59% |          76      8.15%     70.74% |          88      9.43%     80.17% |          71      7.61%     87.78% |         114     12.22%    100.00% (Unspecified)
system.caches.L2Cache_Controller.WB_Data_clean::total          933                       (Unspecified)
system.caches.L2Cache_Controller.Ack     |        8841     16.29%     16.29% |        7424     13.68%     29.98% |        6548     12.07%     42.05% |        5680     10.47%     52.52% |        6178     11.39%     63.90% |        6451     11.89%     75.79% |        6829     12.59%     88.38% |        6305     11.62%    100.00% (Unspecified)
system.caches.L2Cache_Controller.Ack::total        54256                       (Unspecified)
system.caches.L2Cache_Controller.Ack_all |        3107     15.35%     15.35% |        2900     14.33%     29.67% |        2038     10.07%     39.74% |        2367     11.69%     51.43% |        2425     11.98%     63.41% |        2513     12.41%     75.82% |        2369     11.70%     87.53% |        2525     12.47%    100.00% (Unspecified)
system.caches.L2Cache_Controller.Ack_all::total        20244                       (Unspecified)
system.caches.L2Cache_Controller.Unblock |         373     25.43%     25.43% |         236     16.09%     41.51% |         140      9.54%     51.06% |          90      6.13%     57.19% |          76      5.18%     62.37% |          88      6.00%     68.37% |         350     23.86%     92.23% |         114      7.77%    100.00% (Unspecified)
system.caches.L2Cache_Controller.Unblock::total         1467                       (Unspecified)
system.caches.L2Cache_Controller.Exclusive_Unblock |      623842     12.53%     12.53% |      624358     12.54%     25.06% |      619929     12.45%     37.51% |      621413     12.48%     49.98% |      621371     12.48%     62.46% |      624189     12.53%     74.99% |      622488     12.50%     87.49% |      623137     12.51%    100.00% (Unspecified)
system.caches.L2Cache_Controller.Exclusive_Unblock::total      4980727                       (Unspecified)
system.caches.L2Cache_Controller.NP.L1_GET_INSTR |        1093     14.06%     14.06% |        1153     14.83%     28.88% |         947     12.18%     41.06% |         835     10.74%     51.80% |         895     11.51%     63.31% |         915     11.77%     75.08% |         993     12.77%     87.85% |         945     12.15%    100.00% (Unspecified)
system.caches.L2Cache_Controller.NP.L1_GET_INSTR::total         7776                       (Unspecified)
system.caches.L2Cache_Controller.NP.L1_GETS |      301690     12.52%     12.52% |      301802     12.53%     25.05% |      300163     12.46%     37.51% |      300893     12.49%     50.00% |      300866     12.49%     62.49% |      300828     12.49%     74.98% |      301255     12.51%     87.49% |      301428     12.51%    100.00% (Unspecified)
system.caches.L2Cache_Controller.NP.L1_GETS::total      2408925                       (Unspecified)
system.caches.L2Cache_Controller.NP.L1_GETX |      320736     12.53%     12.53% |      320176     12.51%     25.04% |      318109     12.43%     37.47% |      319401     12.48%     49.95% |      319352     12.48%     62.43% |      321591     12.57%     75.00% |      319608     12.49%     87.49% |      320267     12.51%    100.00% (Unspecified)
system.caches.L2Cache_Controller.NP.L1_GETX::total      2559240                       (Unspecified)
system.caches.L2Cache_Controller.NP.L1_PUTX_old |           0      0.00%      0.00% |           0      0.00%      0.00% |           1     50.00%     50.00% |           0      0.00%     50.00% |           1     50.00%    100.00% |           0      0.00%    100.00% |           0      0.00%    100.00% |           0      0.00%    100.00% (Unspecified)
system.caches.L2Cache_Controller.NP.L1_PUTX_old::total            2                       (Unspecified)
system.caches.L2Cache_Controller.SS.L1_GET_INSTR |        9015     12.06%     12.06% |       10983     14.69%     26.75% |        8313     11.12%     37.87% |        5859      7.84%     45.71% |        9909     13.26%     58.97% |       11024     14.75%     73.71% |       10043     13.44%     87.15% |        9606     12.85%    100.00% (Unspecified)
system.caches.L2Cache_Controller.SS.L1_GET_INSTR::total        74752                       (Unspecified)
system.caches.L2Cache_Controller.SS.L1_GETS |       10006     22.97%     22.97% |        6369     14.62%     37.60% |        7075     16.24%     53.84% |        4591     10.54%     64.38% |        3963      9.10%     73.48% |        2821      6.48%     79.96% |        2778      6.38%     86.33% |        5952     13.67%    100.00% (Unspecified)
system.caches.L2Cache_Controller.SS.L1_GETS::total        43555                       (Unspecified)
system.caches.L2Cache_Controller.SS.L1_GETX |          98     60.49%     60.49% |           0      0.00%     60.49% |           0      0.00%     60.49% |           0      0.00%     60.49% |           0      0.00%     60.49% |           0      0.00%     60.49% |          64     39.51%    100.00% |           0      0.00%    100.00% (Unspecified)
system.caches.L2Cache_Controller.SS.L1_GETX::total          162                       (Unspecified)
system.caches.L2Cache_Controller.SS.L1_UPGRADE |           0      0.00%      0.00% |          74     27.61%     27.61% |           0      0.00%     27.61% |           0      0.00%     27.61% |           0      0.00%     27.61% |           0      0.00%     27.61% |         194     72.39%    100.00% |           0      0.00%    100.00% (Unspecified)
system.caches.L2Cache_Controller.SS.L1_UPGRADE::total          268                       (Unspecified)
system.caches.L2Cache_Controller.SS.L2_Replacement |          79     60.31%     60.31% |          23     17.56%     77.86% |           0      0.00%     77.86% |           0      0.00%     77.86% |           0      0.00%     77.86% |           0      0.00%     77.86% |          29     22.14%    100.00% |           0      0.00%    100.00% (Unspecified)
system.caches.L2Cache_Controller.SS.L2_Replacement::total          131                       (Unspecified)
system.caches.L2Cache_Controller.SS.L2_Replacement_clean |        1408     15.20%     15.20% |        1360     14.68%     29.87% |        1181     12.75%     42.62% |         995     10.74%     53.36% |        1030     11.12%     64.47% |        1065     11.49%     75.97% |        1070     11.55%     87.51% |        1157     12.49%    100.00% (Unspecified)
system.caches.L2Cache_Controller.SS.L2_Replacement_clean::total         9266                       (Unspecified)
system.caches.L2Cache_Controller.M.L1_GET_INSTR |           6      9.52%      9.52% |           7     11.11%     20.63% |           8     12.70%     33.33% |           7     11.11%     44.44% |          11     17.46%     61.90% |          12     19.05%     80.95% |           6      9.52%     90.48% |           6      9.52%    100.00% (Unspecified)
system.caches.L2Cache_Controller.M.L1_GET_INSTR::total           63                       (Unspecified)
system.caches.L2Cache_Controller.M.L1_GETS |        1235     13.15%     13.15% |        1769     18.83%     31.98% |        1536     16.35%     48.33% |         979     10.42%     58.76% |        1138     12.12%     70.87% |        1027     10.93%     81.81% |         765      8.14%     89.95% |         944     10.05%    100.00% (Unspecified)
system.caches.L2Cache_Controller.M.L1_GETS::total         9393                       (Unspecified)
system.caches.L2Cache_Controller.M.L1_GETX |         229      6.53%      6.53% |         635     18.11%     24.64% |         243      6.93%     31.57% |         225      6.42%     37.98% |          93      2.65%     40.63% |         824     23.50%     64.13% |         632     18.02%     82.15% |         626     17.85%    100.00% (Unspecified)
system.caches.L2Cache_Controller.M.L1_GETX::total         3507                       (Unspecified)
system.caches.L2Cache_Controller.M.L2_Replacement |      322681     12.52%     12.52% |      321656     12.48%     25.01% |      320510     12.44%     37.45% |      321750     12.49%     49.94% |      321130     12.46%     62.40% |      323643     12.56%     74.96% |      321887     12.49%     87.46% |      323126     12.54%    100.00% (Unspecified)
system.caches.L2Cache_Controller.M.L2_Replacement::total      2576383                       (Unspecified)
system.caches.L2Cache_Controller.M.L2_Replacement_clean |      295334     12.50%     12.50% |      296250     12.54%     25.04% |      295290     12.50%     37.54% |      294857     12.48%     50.02% |      295531     12.51%     62.53% |      294802     12.48%     75.01% |      295557     12.51%     87.52% |      294816     12.48%    100.00% (Unspecified)
system.caches.L2Cache_Controller.M.L2_Replacement_clean::total      2362437                       (Unspecified)
system.caches.L2Cache_Controller.MT.L1_GETS |         373     25.43%     25.43% |         236     16.09%     41.51% |         140      9.54%     51.06% |          90      6.13%     57.19% |          76      5.18%     62.37% |          88      6.00%     68.37% |         350     23.86%     92.23% |         114      7.77%    100.00% (Unspecified)
system.caches.L2Cache_Controller.MT.L1_GETS::total         1467                       (Unspecified)
system.caches.L2Cache_Controller.MT.L1_GETX |           4     50.00%     50.00% |           0      0.00%     50.00% |           0      0.00%     50.00% |           0      0.00%     50.00% |           0      0.00%     50.00% |           0      0.00%     50.00% |           4     50.00%    100.00% |           0      0.00%    100.00% (Unspecified)
system.caches.L2Cache_Controller.MT.L1_GETX::total            8                       (Unspecified)
system.caches.L2Cache_Controller.MT.L1_PUTX |      616677     12.51%     12.51% |      617490     12.53%     25.04% |      614748     12.47%     37.51% |      614970     12.48%     49.99% |      615058     12.48%     62.46% |      617446     12.53%     74.99% |      615987     12.50%     87.49% |      616704     12.51%    100.00% (Unspecified)
system.caches.L2Cache_Controller.MT.L1_PUTX::total      4929080                       (Unspecified)
system.caches.L2Cache_Controller.MT.L2_Replacement |          52     31.14%     31.14% |          22     13.17%     44.31% |           1      0.60%     44.91% |           5      2.99%     47.90% |          12      7.19%     55.09% |          38     22.75%     77.84% |          15      8.98%     86.83% |          22     13.17%    100.00% (Unspecified)
system.caches.L2Cache_Controller.MT.L2_Replacement::total          167                       (Unspecified)
system.caches.L2Cache_Controller.MT.L2_Replacement_clean |        3965     14.39%     14.39% |        3820     13.86%     28.25% |        2237      8.12%     36.37% |        3522     12.78%     49.15% |        3410     12.37%     61.52% |        3786     13.74%     75.26% |        3298     11.97%     87.23% |        3519     12.77%    100.00% (Unspecified)
system.caches.L2Cache_Controller.MT.L2_Replacement_clean::total        27557                       (Unspecified)
system.caches.L2Cache_Controller.M_I.L1_GET_INSTR |          11     34.38%     34.38% |           0      0.00%     34.38% |           0      0.00%     34.38% |           0      0.00%     34.38% |           0      0.00%     34.38% |           0      0.00%     34.38% |          10     31.25%     65.62% |          11     34.38%    100.00% (Unspecified)
system.caches.L2Cache_Controller.M_I.L1_GET_INSTR::total           32                       (Unspecified)
system.caches.L2Cache_Controller.M_I.L1_GETS |           5     27.78%     27.78% |           1      5.56%     33.33% |           0      0.00%     33.33% |           2     11.11%     44.44% |           1      5.56%     50.00% |           1      5.56%     55.56% |           7     38.89%     94.44% |           1      5.56%    100.00% (Unspecified)
system.caches.L2Cache_Controller.M_I.L1_GETS::total           18                       (Unspecified)
system.caches.L2Cache_Controller.M_I.L1_GETX |           4     36.36%     36.36% |           0      0.00%     36.36% |           0      0.00%     36.36% |           1      9.09%     45.45% |           1      9.09%     54.55% |           5     45.45%    100.00% |           0      0.00%    100.00% |           0      0.00%    100.00% (Unspecified)
system.caches.L2Cache_Controller.M_I.L1_GETX::total           11                       (Unspecified)
system.caches.L2Cache_Controller.M_I.Mem_Ack |      623519     12.53%     12.53% |      623131     12.52%     25.05% |      619219     12.44%     37.50% |      621129     12.48%     49.98% |      621113     12.48%     62.46% |      623334     12.53%     74.99% |      621855     12.50%     87.49% |      622639     12.51%    100.00% (Unspecified)
system.caches.L2Cache_Controller.M_I.Mem_Ack::total      4975939                       (Unspecified)
system.caches.L2Cache_Controller.MT_I.WB_Data |          52     31.14%     31.14% |          22     13.17%     44.31% |           1      0.60%     44.91% |           5      2.99%     47.90% |          12      7.19%     55.09% |          38     22.75%     77.84% |          15      8.98%     86.83% |          22     13.17%    100.00% (Unspecified)
system.caches.L2Cache_Controller.MT_I.WB_Data::total          167                       (Unspecified)
system.caches.L2Cache_Controller.MCT_I.L1_PUTX_old |           0      0.00%      0.00% |           0      0.00%      0.00% |           1     50.00%     50.00% |           0      0.00%     50.00% |           1     50.00%    100.00% |           0      0.00%    100.00% |           0      0.00%    100.00% |           0      0.00%    100.00% (Unspecified)
system.caches.L2Cache_Controller.MCT_I.L1_PUTX_old::total            2                       (Unspecified)
system.caches.L2Cache_Controller.MCT_I.WB_Data |        2345     14.03%     14.03% |        2303     13.78%     27.82% |        1380      8.26%     36.07% |        2150     12.87%     48.94% |        2015     12.06%     61.00% |        2338     13.99%     74.99% |        2028     12.14%     87.13% |        2151     12.87%    100.00% (Unspecified)
system.caches.L2Cache_Controller.MCT_I.WB_Data::total        16710                       (Unspecified)
system.caches.L2Cache_Controller.MCT_I.Ack_all |        1620     14.94%     14.94% |        1517     13.99%     28.92% |         857      7.90%     36.82% |        1372     12.65%     49.47% |        1395     12.86%     62.33% |        1448     13.35%     75.68% |        1270     11.71%     87.39% |        1368     12.61%    100.00% (Unspecified)
system.caches.L2Cache_Controller.MCT_I.Ack_all::total        10847                       (Unspecified)
system.caches.L2Cache_Controller.I_I.Ack |        8301     15.56%     15.56% |        7276     13.63%     29.19% |        6548     12.27%     41.46% |        5680     10.64%     52.10% |        6178     11.58%     63.68% |        6451     12.09%     75.77% |        6626     12.42%     88.19% |        6305     11.81%    100.00% (Unspecified)
system.caches.L2Cache_Controller.I_I.Ack::total        53365                       (Unspecified)
system.caches.L2Cache_Controller.I_I.Ack_all |        1408     15.20%     15.20% |        1360     14.68%     29.87% |        1181     12.75%     42.62% |         995     10.74%     53.36% |        1030     11.12%     64.47% |        1065     11.49%     75.97% |        1070     11.55%     87.51% |        1157     12.49%    100.00% (Unspecified)
system.caches.L2Cache_Controller.I_I.Ack_all::total         9266                       (Unspecified)
system.caches.L2Cache_Controller.S_I.Ack |         540     60.61%     60.61% |         148     16.61%     77.22% |           0      0.00%     77.22% |           0      0.00%     77.22% |           0      0.00%     77.22% |           0      0.00%     77.22% |         203     22.78%    100.00% |           0      0.00%    100.00% (Unspecified)
system.caches.L2Cache_Controller.S_I.Ack::total          891                       (Unspecified)
system.caches.L2Cache_Controller.S_I.Ack_all |          79     60.31%     60.31% |          23     17.56%     77.86% |           0      0.00%     77.86% |           0      0.00%     77.86% |           0      0.00%     77.86% |           0      0.00%     77.86% |          29     22.14%    100.00% |           0      0.00%    100.00% (Unspecified)
system.caches.L2Cache_Controller.S_I.Ack_all::total          131                       (Unspecified)
system.caches.L2Cache_Controller.ISS.L1_GETS |         148     19.35%     19.35% |          96     12.55%     31.90% |         121     15.82%     47.71% |          85     11.11%     58.82% |          77     10.07%     68.89% |          79     10.33%     79.22% |          33      4.31%     83.53% |         126     16.47%    100.00% (Unspecified)
system.caches.L2Cache_Controller.ISS.L1_GETS::total          765                       (Unspecified)
system.caches.L2Cache_Controller.ISS.Mem_Data |      301542     12.52%     12.52% |      301705     12.53%     25.05% |      300041     12.46%     37.51% |      300808     12.49%     50.00% |      300789     12.49%     62.49% |      300748     12.49%     74.98% |      301222     12.51%     87.49% |      301301     12.51%    100.00% (Unspecified)
system.caches.L2Cache_Controller.ISS.Mem_Data::total      2408156                       (Unspecified)
system.caches.L2Cache_Controller.IS.L1_GET_INSTR |         735     16.00%     16.00% |         606     13.19%     29.20% |         526     11.45%     40.65% |         482     10.49%     51.14% |         486     10.58%     61.72% |         523     11.39%     73.11% |         660     14.37%     87.48% |         575     12.52%    100.00% (Unspecified)
system.caches.L2Cache_Controller.IS.L1_GET_INSTR::total         4593                       (Unspecified)
system.caches.L2Cache_Controller.IS.L1_GETS |         137     24.82%     24.82% |          91     16.49%     41.30% |          66     11.96%     53.26% |          54      9.78%     63.04% |          26      4.71%     67.75% |          82     14.86%     82.61% |          16      2.90%     85.51% |          80     14.49%    100.00% (Unspecified)
system.caches.L2Cache_Controller.IS.L1_GETS::total          552                       (Unspecified)
system.caches.L2Cache_Controller.IS.Mem_Data |        1241     14.53%     14.53% |        1249     14.62%     29.15% |        1068     12.50%     41.66% |         920     10.77%     52.43% |         972     11.38%     63.81% |         994     11.64%     75.45% |        1026     12.01%     87.46% |        1071     12.54%    100.00% (Unspecified)
system.caches.L2Cache_Controller.IS.Mem_Data::total         8541                       (Unspecified)
system.caches.L2Cache_Controller.IM.L1_GETS |           0      0.00%      0.00% |           0      0.00%      0.00% |           0      0.00%      0.00% |           0      0.00%      0.00% |           0      0.00%      0.00% |           0      0.00%      0.00% |           3    100.00%    100.00% |           0      0.00%    100.00% (Unspecified)
system.caches.L2Cache_Controller.IM.L1_GETS::total            3                       (Unspecified)
system.caches.L2Cache_Controller.IM.Mem_Data |      320734     12.53%     12.53% |      320175     12.51%     25.04% |      318109     12.43%     37.47% |      319401     12.48%     49.95% |      319351     12.48%     62.43% |      321590     12.57%     75.00% |      319607     12.49%     87.49% |      320266     12.51%    100.00% (Unspecified)
system.caches.L2Cache_Controller.IM.Mem_Data::total      2559233                       (Unspecified)
system.caches.L2Cache_Controller.SS_MB.L1_GETS |           0      0.00%      0.00% |           0      0.00%      0.00% |           0      0.00%      0.00% |           0      0.00%      0.00% |           0      0.00%      0.00% |           0      0.00%      0.00% |         349    100.00%    100.00% |           0      0.00%    100.00% (Unspecified)
system.caches.L2Cache_Controller.SS_MB.L1_GETS::total          349                       (Unspecified)
system.caches.L2Cache_Controller.SS_MB.Exclusive_Unblock |          98     22.79%     22.79% |          74     17.21%     40.00% |           0      0.00%     40.00% |           0      0.00%     40.00% |           0      0.00%     40.00% |           0      0.00%     40.00% |         258     60.00%    100.00% |           0      0.00%    100.00% (Unspecified)
system.caches.L2Cache_Controller.SS_MB.Exclusive_Unblock::total          430                       (Unspecified)
system.caches.L2Cache_Controller.MT_MB.L1_GETS |           1      5.88%      5.88% |           3     17.65%     23.53% |           1      5.88%     29.41% |           7     41.18%     70.59% |           2     11.76%     82.35% |           0      0.00%     82.35% |           1      5.88%     88.24% |           2     11.76%    100.00% (Unspecified)
system.caches.L2Cache_Controller.MT_MB.L1_GETS::total           17                       (Unspecified)
system.caches.L2Cache_Controller.MT_MB.Exclusive_Unblock |      623744     12.52%     12.52% |      624284     12.54%     25.06% |      619929     12.45%     37.51% |      621413     12.48%     49.98% |      621371     12.48%     62.46% |      624189     12.53%     74.99% |      622230     12.49%     87.49% |      623137     12.51%    100.00% (Unspecified)
system.caches.L2Cache_Controller.MT_MB.Exclusive_Unblock::total      4980297                       (Unspecified)
system.caches.L2Cache_Controller.MT_IIB.L1_GETS |          41     11.08%     11.08% |          47     12.70%     23.78% |           5      1.35%     25.14% |          14      3.78%     28.92% |           4      1.08%     30.00% |          10      2.70%     32.70% |         249     67.30%    100.00% |           0      0.00%    100.00% (Unspecified)
system.caches.L2Cache_Controller.MT_IIB.L1_GETS::total          370                       (Unspecified)
system.caches.L2Cache_Controller.MT_IIB.WB_Data |         170     31.84%     31.84% |          85     15.92%     47.75% |           0      0.00%     47.75% |           0      0.00%     47.75% |           0      0.00%     47.75% |           0      0.00%     47.75% |         279     52.25%    100.00% |           0      0.00%    100.00% (Unspecified)
system.caches.L2Cache_Controller.MT_IIB.WB_Data::total          534                       (Unspecified)
system.caches.L2Cache_Controller.MT_IIB.WB_Data_clean |         203     21.76%     21.76% |         151     16.18%     37.94% |         140     15.01%     52.95% |          90      9.65%     62.59% |          76      8.15%     70.74% |          88      9.43%     80.17% |          71      7.61%     87.78% |         114     12.22%    100.00% (Unspecified)
system.caches.L2Cache_Controller.MT_IIB.WB_Data_clean::total          933                       (Unspecified)
system.caches.L2Cache_Controller.MT_SB.L1_GETS |           3     37.50%     37.50% |           0      0.00%     37.50% |           1     12.50%     50.00% |           0      0.00%     50.00% |           0      0.00%     50.00% |           0      0.00%     50.00% |           4     50.00%    100.00% |           0      0.00%    100.00% (Unspecified)
system.caches.L2Cache_Controller.MT_SB.L1_GETS::total            8                       (Unspecified)
system.caches.L2Cache_Controller.MT_SB.L1_UPGRADE |           0      0.00%      0.00% |           0      0.00%      0.00% |           0      0.00%      0.00% |           0      0.00%      0.00% |           0      0.00%      0.00% |           0      0.00%      0.00% |          82    100.00%    100.00% |           0      0.00%    100.00% (Unspecified)
system.caches.L2Cache_Controller.MT_SB.L1_UPGRADE::total           82                       (Unspecified)
system.caches.L2Cache_Controller.MT_SB.Unblock |         373     25.43%     25.43% |         236     16.09%     41.51% |         140      9.54%     51.06% |          90      6.13%     57.19% |          76      5.18%     62.37% |          88      6.00%     68.37% |         350     23.86%     92.23% |         114      7.77%    100.00% (Unspecified)
system.caches.L2Cache_Controller.MT_SB.Unblock::total         1467                       (Unspecified)
system.caches.RequestType.LD.latency_hist_seqr::bucket_size         1024                       (Unspecified)
system.caches.RequestType.LD.latency_hist_seqr::max_bucket        10239                       (Unspecified)
system.caches.RequestType.LD.latency_hist_seqr::samples      5676469                       (Unspecified)
system.caches.RequestType.LD.latency_hist_seqr::mean   448.389633                       (Unspecified)
system.caches.RequestType.LD.latency_hist_seqr::gmean    18.736409                       (Unspecified)
system.caches.RequestType.LD.latency_hist_seqr::stdev   637.975400                       (Unspecified)
system.caches.RequestType.LD.latency_hist_seqr |     4670959     82.29%     82.29% |      846085     14.91%     97.19% |      141107      2.49%     99.68% |       17966      0.32%     99.99% |         347      0.01%    100.00% |           5      0.00%    100.00% |           0      0.00%    100.00% |           0      0.00%    100.00% |           0      0.00%    100.00% |           0      0.00%    100.00% (Unspecified)
system.caches.RequestType.LD.latency_hist_seqr::total      5676469                       (Unspecified)
system.caches.RequestType.LD.hit_latency_hist_seqr::bucket_size            1                       (Unspecified)
system.caches.RequestType.LD.hit_latency_hist_seqr::max_bucket            9                       (Unspecified)
system.caches.RequestType.LD.hit_latency_hist_seqr::samples      3211816                       (Unspecified)
system.caches.RequestType.LD.hit_latency_hist_seqr::mean     1.000224                       (Unspecified)
system.caches.RequestType.LD.hit_latency_hist_seqr::gmean     1.000155                       (Unspecified)
system.caches.RequestType.LD.hit_latency_hist_seqr::stdev     0.014950                       (Unspecified)
system.caches.RequestType.LD.hit_latency_hist_seqr |           0      0.00%      0.00% |     3211098     99.98%     99.98% |         718      0.02%    100.00% |           0      0.00%    100.00% |           0      0.00%    100.00% |           0      0.00%    100.00% |           0      0.00%    100.00% |           0      0.00%    100.00% |           0      0.00%    100.00% |           0      0.00%    100.00% (Unspecified)
system.caches.RequestType.LD.hit_latency_hist_seqr::total      3211816                       (Unspecified)
system.caches.RequestType.LD.miss_latency_hist_seqr::bucket_size         1024                       (Unspecified)
system.caches.RequestType.LD.miss_latency_hist_seqr::max_bucket        10239                       (Unspecified)
system.caches.RequestType.LD.miss_latency_hist_seqr::samples      2464653                       (Unspecified)
system.caches.RequestType.LD.miss_latency_hist_seqr::mean  1031.405768                       (Unspecified)
system.caches.RequestType.LD.miss_latency_hist_seqr::gmean   853.299842                       (Unspecified)
system.caches.RequestType.LD.miss_latency_hist_seqr::stdev   580.231486                       (Unspecified)
system.caches.RequestType.LD.miss_latency_hist_seqr |     1459143     59.20%     59.20% |      846085     34.33%     93.53% |      141107      5.73%     99.26% |       17966      0.73%     99.99% |         347      0.01%    100.00% |           5      0.00%    100.00% |           0      0.00%    100.00% |           0      0.00%    100.00% |           0      0.00%    100.00% |           0      0.00%    100.00% (Unspecified)
system.caches.RequestType.LD.miss_latency_hist_seqr::total      2464653                       (Unspecified)
system.caches.RequestType.ST.latency_hist_seqr::bucket_size         1024                       (Unspecified)
system.caches.RequestType.ST.latency_hist_seqr::max_bucket        10239                       (Unspecified)
system.caches.RequestType.ST.latency_hist_seqr::samples     20467735                       (Unspecified)
system.caches.RequestType.ST.latency_hist_seqr::mean   157.728679                       (Unspecified)
system.caches.RequestType.ST.latency_hist_seqr::gmean     2.399656                       (Unspecified)
system.caches.RequestType.ST.latency_hist_seqr::stdev   471.291238                       (Unspecified)
system.caches.RequestType.ST.latency_hist_seqr |    19022334     92.94%     92.94% |     1168056      5.71%     98.64% |      231362      1.13%     99.78% |       45593      0.22%    100.00% |         387      0.00%    100.00% |           3      0.00%    100.00% |           0      0.00%    100.00% |           0      0.00%    100.00% |           0      0.00%    100.00% |           0      0.00%    100.00% (Unspecified)
system.caches.RequestType.ST.latency_hist_seqr::total     20467735                       (Unspecified)
system.caches.RequestType.ST.hit_latency_hist_seqr::bucket_size          256                       (Unspecified)
system.caches.RequestType.ST.hit_latency_hist_seqr::max_bucket         2559                       (Unspecified)
system.caches.RequestType.ST.hit_latency_hist_seqr::samples     17914106                       (Unspecified)
system.caches.RequestType.ST.hit_latency_hist_seqr::mean     1.000465                       (Unspecified)
system.caches.RequestType.ST.hit_latency_hist_seqr::gmean     1.000138                       (Unspecified)
system.caches.RequestType.ST.hit_latency_hist_seqr::stdev     0.565165                       (Unspecified)
system.caches.RequestType.ST.hit_latency_hist_seqr |    17914102    100.00%    100.00% |           0      0.00%    100.00% |           2      0.00%    100.00% |           0      0.00%    100.00% |           1      0.00%    100.00% |           0      0.00%    100.00% |           0      0.00%    100.00% |           1      0.00%    100.00% |           0      0.00%    100.00% |           0      0.00%    100.00% (Unspecified)
system.caches.RequestType.ST.hit_latency_hist_seqr::total     17914106                       (Unspecified)
system.caches.RequestType.ST.miss_latency_hist_seqr::bucket_size         1024                       (Unspecified)
system.caches.RequestType.ST.miss_latency_hist_seqr::max_bucket        10239                       (Unspecified)
system.caches.RequestType.ST.miss_latency_hist_seqr::samples      2553629                       (Unspecified)
system.caches.RequestType.ST.miss_latency_hist_seqr::mean  1257.201557                       (Unspecified)
system.caches.RequestType.ST.miss_latency_hist_seqr::gmean  1113.094301                       (Unspecified)
system.caches.RequestType.ST.miss_latency_hist_seqr::stdev   631.766292                       (Unspecified)
system.caches.RequestType.ST.miss_latency_hist_seqr |     1108230     43.40%     43.40% |     1168054     45.74%     89.14% |      231362      9.06%     98.20% |       45593      1.79%     99.98% |         387      0.02%    100.00% |           3      0.00%    100.00% |           0      0.00%    100.00% |           0      0.00%    100.00% |           0      0.00%    100.00% |           0      0.00%    100.00% (Unspecified)
system.caches.RequestType.ST.miss_latency_hist_seqr::total      2553629                       (Unspecified)
system.caches.RequestType.IFETCH.latency_hist_seqr::bucket_size          512                       (Unspecified)
system.caches.RequestType.IFETCH.latency_hist_seqr::max_bucket         5119                       (Unspecified)
system.caches.RequestType.IFETCH.latency_hist_seqr::samples      9295212                       (Unspecified)
system.caches.RequestType.IFETCH.latency_hist_seqr::mean     1.471347                       (Unspecified)
system.caches.RequestType.IFETCH.latency_hist_seqr::gmean     1.028469                       (Unspecified)
system.caches.RequestType.IFETCH.latency_hist_seqr::stdev    13.231131                       (Unspecified)
system.caches.RequestType.IFETCH.latency_hist_seqr |     9294689     99.99%     99.99% |         230      0.00%    100.00% |         160      0.00%    100.00% |         100      0.00%    100.00% |          16      0.00%    100.00% |          15      0.00%    100.00% |           1      0.00%    100.00% |           1      0.00%    100.00% |           0      0.00%    100.00% |           0      0.00%    100.00% (Unspecified)
system.caches.RequestType.IFETCH.latency_hist_seqr::total      9295212                       (Unspecified)
system.caches.RequestType.IFETCH.hit_latency_hist_seqr::bucket_size            1                       (Unspecified)
system.caches.RequestType.IFETCH.hit_latency_hist_seqr::max_bucket            9                       (Unspecified)
system.caches.RequestType.IFETCH.hit_latency_hist_seqr::samples      9208028                       (Unspecified)
system.caches.RequestType.IFETCH.hit_latency_hist_seqr::mean            1                       (Unspecified)
system.caches.RequestType.IFETCH.hit_latency_hist_seqr::gmean            1                       (Unspecified)
system.caches.RequestType.IFETCH.hit_latency_hist_seqr |           0      0.00%      0.00% |     9208028    100.00%    100.00% |           0      0.00%    100.00% |           0      0.00%    100.00% |           0      0.00%    100.00% |           0      0.00%    100.00% |           0      0.00%    100.00% |           0      0.00%    100.00% |           0      0.00%    100.00% |           0      0.00%    100.00% (Unspecified)
system.caches.RequestType.IFETCH.hit_latency_hist_seqr::total      9208028                       (Unspecified)
system.caches.RequestType.IFETCH.miss_latency_hist_seqr::bucket_size          512                       (Unspecified)
system.caches.RequestType.IFETCH.miss_latency_hist_seqr::max_bucket         5119                       (Unspecified)
system.caches.RequestType.IFETCH.miss_latency_hist_seqr::samples        87184                       (Unspecified)
system.caches.RequestType.IFETCH.miss_latency_hist_seqr::mean    51.253131                       (Unspecified)
system.caches.RequestType.IFETCH.miss_latency_hist_seqr::gmean    19.941619                       (Unspecified)
system.caches.RequestType.IFETCH.miss_latency_hist_seqr::stdev   127.133770                       (Unspecified)
system.caches.RequestType.IFETCH.miss_latency_hist_seqr |       86661     99.40%     99.40% |         230      0.26%     99.66% |         160      0.18%     99.85% |         100      0.11%     99.96% |          16      0.02%     99.98% |          15      0.02%    100.00% |           1      0.00%    100.00% |           1      0.00%    100.00% |           0      0.00%    100.00% |           0      0.00%    100.00% (Unspecified)
system.caches.RequestType.IFETCH.miss_latency_hist_seqr::total        87184                       (Unspecified)
system.caches.RequestType.RMW_Read.latency_hist_seqr::bucket_size          512                       (Unspecified)
system.caches.RequestType.RMW_Read.latency_hist_seqr::max_bucket         5119                       (Unspecified)
system.caches.RequestType.RMW_Read.latency_hist_seqr::samples        24461                       (Unspecified)
system.caches.RequestType.RMW_Read.latency_hist_seqr::mean   271.378357                       (Unspecified)
system.caches.RequestType.RMW_Read.latency_hist_seqr::gmean     8.490292                       (Unspecified)
system.caches.RequestType.RMW_Read.latency_hist_seqr::stdev   547.820616                       (Unspecified)
system.caches.RequestType.RMW_Read.latency_hist_seqr |       18775     76.75%     76.75% |        3112     12.72%     89.48% |        1532      6.26%     95.74% |         549      2.24%     97.98% |         289      1.18%     99.17% |         149      0.61%     99.78% |          42      0.17%     99.95% |          11      0.04%     99.99% |           2      0.01%    100.00% |           0      0.00%    100.00% (Unspecified)
system.caches.RequestType.RMW_Read.latency_hist_seqr::total        24461                       (Unspecified)
system.caches.RequestType.RMW_Read.hit_latency_hist_seqr::bucket_size          512                       (Unspecified)
system.caches.RequestType.RMW_Read.hit_latency_hist_seqr::max_bucket         5119                       (Unspecified)
system.caches.RequestType.RMW_Read.hit_latency_hist_seqr::samples        16443                       (Unspecified)
system.caches.RequestType.RMW_Read.hit_latency_hist_seqr::mean    14.623609                       (Unspecified)
system.caches.RequestType.RMW_Read.hit_latency_hist_seqr::gmean     1.371119                       (Unspecified)
system.caches.RequestType.RMW_Read.hit_latency_hist_seqr::stdev   129.622593                       (Unspecified)
system.caches.RequestType.RMW_Read.hit_latency_hist_seqr |       16247     98.81%     98.81% |         119      0.72%     99.53% |          49      0.30%     99.83% |          14      0.09%     99.91% |           5      0.03%     99.95% |           9      0.05%    100.00% |           0      0.00%    100.00% |           0      0.00%    100.00% |           0      0.00%    100.00% |           0      0.00%    100.00% (Unspecified)
system.caches.RequestType.RMW_Read.hit_latency_hist_seqr::total        16443                       (Unspecified)
system.caches.RequestType.RMW_Read.miss_latency_hist_seqr::bucket_size          512                       (Unspecified)
system.caches.RequestType.RMW_Read.miss_latency_hist_seqr::max_bucket         5119                       (Unspecified)
system.caches.RequestType.RMW_Read.miss_latency_hist_seqr::samples         8018                       (Unspecified)
system.caches.RequestType.RMW_Read.miss_latency_hist_seqr::mean   797.920928                       (Unspecified)
system.caches.RequestType.RMW_Read.miss_latency_hist_seqr::gmean   357.118508                       (Unspecified)
system.caches.RequestType.RMW_Read.miss_latency_hist_seqr::stdev   684.604112                       (Unspecified)
system.caches.RequestType.RMW_Read.miss_latency_hist_seqr |        2528     31.53%     31.53% |        2993     37.33%     68.86% |        1483     18.50%     87.35% |         535      6.67%     94.03% |         284      3.54%     97.57% |         140      1.75%     99.31% |          42      0.52%     99.84% |          11      0.14%     99.98% |           2      0.02%    100.00% |           0      0.00%    100.00% (Unspecified)
system.caches.RequestType.RMW_Read.miss_latency_hist_seqr::total         8018                       (Unspecified)
system.caches.RequestType.Locked_RMW_Read.latency_hist_seqr::bucket_size          512                       (Unspecified)
system.caches.RequestType.Locked_RMW_Read.latency_hist_seqr::max_bucket         5119                       (Unspecified)
system.caches.RequestType.Locked_RMW_Read.latency_hist_seqr::samples         4933                       (Unspecified)
system.caches.RequestType.Locked_RMW_Read.latency_hist_seqr::mean   300.838232                       (Unspecified)
system.caches.RequestType.Locked_RMW_Read.latency_hist_seqr::gmean     6.973181                       (Unspecified)
system.caches.RequestType.Locked_RMW_Read.latency_hist_seqr::stdev   614.624017                       (Unspecified)
system.caches.RequestType.Locked_RMW_Read.latency_hist_seqr |        3767     76.36%     76.36% |         545     11.05%     87.41% |         327      6.63%     94.04% |         151      3.06%     97.10% |          81      1.64%     98.74% |          42      0.85%     99.59% |          13      0.26%     99.86% |           6      0.12%     99.98% |           1      0.02%    100.00% |           0      0.00%    100.00% (Unspecified)
system.caches.RequestType.Locked_RMW_Read.latency_hist_seqr::total         4933                       (Unspecified)
system.caches.RequestType.Locked_RMW_Read.hit_latency_hist_seqr::bucket_size            1                       (Unspecified)
system.caches.RequestType.Locked_RMW_Read.hit_latency_hist_seqr::max_bucket            9                       (Unspecified)
system.caches.RequestType.Locked_RMW_Read.hit_latency_hist_seqr::samples         3402                       (Unspecified)
system.caches.RequestType.Locked_RMW_Read.hit_latency_hist_seqr::mean            1                       (Unspecified)
[...]
system.o3Cpu7.iew.squashCycles                   4959                       # Number of cycles IEW is squashing (Cycle)
system.o3Cpu7.iew.blockCycles                49172892                       # Number of cycles IEW is blocking (Cycle)
system.o3Cpu7.iew.unblockCycles             126005808                       # Number of cycles IEW is unblocking (Cycle)
system.o3Cpu7.iew.dispatchedInsts            11147036                       # Number of instructions dispatched to IQ (Count)
system.o3Cpu7.iew.dispSquashedInsts              1587                       # Number of squashed instructions skipped by dispatch (Count)
system.o3Cpu7.iew.dispLoadInsts               2313354                       # Number of dispatched load instructions (Count)
system.o3Cpu7.iew.dispStoreInsts              2554946                       # Number of dispatched store instructions (Count)
system.o3Cpu7.iew.dispNonSpecInsts               3229                       # Number of dispatched non-speculative instructions (Count)
system.o3Cpu7.iew.iqFullEvents                  57614                       # Number of times the IQ has become full, causing a stall (Count)
system.o3Cpu7.iew.lsqFullEvents             125873637                       # Number of times the LSQ has become full, causing a stall (Count)
system.o3Cpu7.iew.memOrderViolationEvents          205                       # Number of memory order violations (Count)
system.o3Cpu7.iew.predictedTakenIncorrect         3666                       # Number of branches that were predicted taken incorrectly (Count)
system.o3Cpu7.iew.predictedNotTakenIncorrect          968                       # Number of branches that were predicted not taken incorrectly (Count)
system.o3Cpu7.iew.branchMispredicts              4634                       # Number of branch mispredicts detected at execute (Count)
system.o3Cpu7.iew.instsToCommit              11124421                       # Cumulative count of insts sent to commit (Count)
system.o3Cpu7.iew.writebackCount             11122382                       # Cumulative count of insts written-back (Count)
system.o3Cpu7.iew.producerInst                5437779                       # Number of instructions producing a value (Count)
system.o3Cpu7.iew.consumerInst               10010325                       # Number of instructions consuming a value (Count)
system.o3Cpu7.iew.wbRate                     0.026600                       # Insts written-back per cycle ((Count/Cycle))
system.o3Cpu7.iew.wbFanout                   0.543217                       # Average fanout of values written-back ((Count/Count))
system.o3Cpu7.interrupts.clk_domain.clock         3200                       # Clock period in ticks (Tick)
system.o3Cpu7.lsq0.forwLoads                     7238                       # Number of loads that had data forwarded from stores (Count)
system.o3Cpu7.lsq0.squashedLoads                 8503                       # Number of loads squashed (Count)
system.o3Cpu7.lsq0.ignoredResponses                 0                       # Number of memory responses ignored because the instruction is squashed (Count)
system.o3Cpu7.lsq0.memOrderViolation              205                       # Number of memory ordering violations (Count)
system.o3Cpu7.lsq0.squashedStores                2616                       # Number of stores squashed (Count)
system.o3Cpu7.lsq0.rescheduledLoads                77                       # Number of loads that were rescheduled (Count)
system.o3Cpu7.lsq0.blockedByCache               28926                       # Number of times an access to memory failed due to the cache being blocked (Count)
system.o3Cpu7.lsq0.loadToUse::samples         2304845                       # Distribution of cycle latency between the first time a load is issued and its completion (Unspecified)
system.o3Cpu7.lsq0.loadToUse::mean         708.885839                       # Distribution of cycle latency between the first time a load is issued and its completion (Unspecified)
system.o3Cpu7.lsq0.loadToUse::stdev        654.274481                       # Distribution of cycle latency between the first time a load is issued and its completion (Unspecified)
system.o3Cpu7.lsq0.loadToUse::0-9              632349     27.44%     27.44% # Distribution of cycle latency between the first time a load is issued and its completion (Unspecified)
system.o3Cpu7.lsq0.loadToUse::10-19              9527      0.41%     27.85% # Distribution of cycle latency between the first time a load is issued and its completion (Unspecified)
system.o3Cpu7.lsq0.loadToUse::20-29              6291      0.27%     28.12% # Distribution of cycle latency between the first time a load is issued and its completion (Unspecified)
system.o3Cpu7.lsq0.loadToUse::30-39              4592      0.20%     28.32% # Distribution of cycle latency between the first time a load is issued and its completion (Unspecified)
system.o3Cpu7.lsq0.loadToUse::40-49              6488      0.28%     28.60% # Distribution of cycle latency between the first time a load is issued and its completion (Unspecified)
system.o3Cpu7.lsq0.loadToUse::50-59              1419      0.06%     28.66% # Distribution of cycle latency between the first time a load is issued and its completion (Unspecified)
system.o3Cpu7.lsq0.loadToUse::60-69              4754      0.21%     28.87% # Distribution of cycle latency between the first time a load is issued and its completion (Unspecified)
system.o3Cpu7.lsq0.loadToUse::70-79              3524      0.15%     29.02% # Distribution of cycle latency between the first time a load is issued and its completion (Unspecified)
system.o3Cpu7.lsq0.loadToUse::80-89              3469      0.15%     29.17% # Distribution of cycle latency between the first time a load is issued and its completion (Unspecified)
system.o3Cpu7.lsq0.loadToUse::90-99              3144      0.14%     29.31% # Distribution of cycle latency between the first time a load is issued and its completion (Unspecified)
system.o3Cpu7.lsq0.loadToUse::100-109            1514      0.07%     29.38% # Distribution of cycle latency between the first time a load is issued and its completion (Unspecified)
system.o3Cpu7.lsq0.loadToUse::110-119            1727      0.07%     29.45% # Distribution of cycle latency between the first time a load is issued and its completion (Unspecified)
system.o3Cpu7.lsq0.loadToUse::120-129            1854      0.08%     29.53% # Distribution of cycle latency between the first time a load is issued and its completion (Unspecified)
system.o3Cpu7.lsq0.loadToUse::130-139            2573      0.11%     29.64% # Distribution of cycle latency between the first time a load is issued and its completion (Unspecified)
system.o3Cpu7.lsq0.loadToUse::140-149            2096      0.09%     29.73% # Distribution of cycle latency between the first time a load is issued and its completion (Unspecified)
system.o3Cpu7.lsq0.loadToUse::150-159            1553      0.07%     29.80% # Distribution of cycle latency between the first time a load is issued and its completion (Unspecified)
system.o3Cpu7.lsq0.loadToUse::160-169            1305      0.06%     29.86% # Distribution of cycle latency between the first time a load is issued and its completion (Unspecified)
system.o3Cpu7.lsq0.loadToUse::170-179            1562      0.07%     29.93% # Distribution of cycle latency between the first time a load is issued and its completion (Unspecified)
system.o3Cpu7.lsq0.loadToUse::180-189            2024      0.09%     30.01% # Distribution of cycle latency between the first time a load is issued and its completion (Unspecified)
system.o3Cpu7.lsq0.loadToUse::190-199            2149      0.09%     30.11% # Distribution of cycle latency between the first time a load is issued and its completion (Unspecified)
system.o3Cpu7.lsq0.loadToUse::200-209            1634      0.07%     30.18% # Distribution of cycle latency between the first time a load is issued and its completion (Unspecified)
system.o3Cpu7.lsq0.loadToUse::210-219            1363      0.06%     30.24% # Distribution of cycle latency between the first time a load is issued and its completion (Unspecified)
system.o3Cpu7.lsq0.loadToUse::220-229            1882      0.08%     30.32% # Distribution of cycle latency between the first time a load is issued and its completion (Unspecified)
system.o3Cpu7.lsq0.loadToUse::230-239            2189      0.09%     30.41% # Distribution of cycle latency between the first time a load is issued and its completion (Unspecified)
system.o3Cpu7.lsq0.loadToUse::240-249            2479      0.11%     30.52% # Distribution of cycle latency between the first time a load is issued and its completion (Unspecified)
system.o3Cpu7.lsq0.loadToUse::250-259            2299      0.10%     30.62% # Distribution of cycle latency between the first time a load is issued and its completion (Unspecified)
system.o3Cpu7.lsq0.loadToUse::260-269            1702      0.07%     30.69% # Distribution of cycle latency between the first time a load is issued and its completion (Unspecified)
system.o3Cpu7.lsq0.loadToUse::270-279            1969      0.09%     30.78% # Distribution of cycle latency between the first time a load is issued and its completion (Unspecified)
system.o3Cpu7.lsq0.loadToUse::280-289            2245      0.10%     30.88% # Distribution of cycle latency between the first time a load is issued and its completion (Unspecified)
system.o3Cpu7.lsq0.loadToUse::290-299            3047      0.13%     31.01% # Distribution of cycle latency between the first time a load is issued and its completion (Unspecified)
system.o3Cpu7.lsq0.loadToUse::overflows       1590122     68.99%    100.00% # Distribution of cycle latency between the first time a load is issued and its completion (Unspecified)
system.o3Cpu7.lsq0.loadToUse::min_value             2                       # Distribution of cycle latency between the first time a load is issued and its completion (Unspecified)
system.o3Cpu7.lsq0.loadToUse::max_value          5633                       # Distribution of cycle latency between the first time a load is issued and its completion (Unspecified)
system.o3Cpu7.lsq0.loadToUse::total           2304845                       # Distribution of cycle latency between the first time a load is issued and its completion (Unspecified)
system.o3Cpu7.mmu.dtb.rdAccesses              2313954                       # TLB accesses on read requests (Count)
system.o3Cpu7.mmu.dtb.wrAccesses              2555841                       # TLB accesses on write requests (Count)
system.o3Cpu7.mmu.dtb.rdMisses                   3122                       # TLB misses on read requests (Count)
system.o3Cpu7.mmu.dtb.wrMisses                   2138                       # TLB misses on write requests (Count)
system.o3Cpu7.mmu.dtb.walker.power_state.pwrStateResidencyTicks::UNDEFINED  84640958400                       # Cumulative time (in ticks) in various power states (Tick)
system.o3Cpu7.mmu.itb.rdAccesses                    0                       # TLB accesses on read requests (Count)
system.o3Cpu7.mmu.itb.wrAccesses              1080178                       # TLB accesses on write requests (Count)
system.o3Cpu7.mmu.itb.rdMisses                      0                       # TLB misses on read requests (Count)
system.o3Cpu7.mmu.itb.wrMisses                    159                       # TLB misses on write requests (Count)
system.o3Cpu7.mmu.itb.walker.power_state.pwrStateResidencyTicks::UNDEFINED  84640958400                       # Cumulative time (in ticks) in various power states (Tick)
system.o3Cpu7.power_state.pwrStateResidencyTicks::OFF  84640958400                       # Cumulative time (in ticks) in various power states (Tick)
system.o3Cpu7.rename.squashCycles                4959                       # Number of cycles rename is squashing (Cycle)
system.o3Cpu7.rename.idleCycles               1082666                       # Number of cycles rename is idle (Cycle)
system.o3Cpu7.rename.blockCycles            178189696                       # Number of cycles rename is blocking (Cycle)
system.o3Cpu7.rename.serializeStallCycles       803192                       # count of cycles rename stalled for serializing inst (Cycle)
system.o3Cpu7.rename.runCycles                2428137                       # Number of cycles rename is running (Cycle)
system.o3Cpu7.rename.unblockCycles          235554747                       # Number of cycles rename is unblocking (Cycle)
system.o3Cpu7.rename.renamedInsts            11167795                       # Number of instructions processed by rename (Count)
system.o3Cpu7.rename.ROBFullEvents             127163                       # Number of times rename has blocked due to ROB full (Count)
system.o3Cpu7.rename.IQFullEvents             9537561                       # Number of times rename has blocked due to IQ full (Count)
system.o3Cpu7.rename.LQFullEvents             5414675                       # Number of times rename has blocked due to LQ full (Count)
system.o3Cpu7.rename.SQFullEvents           229660804                       # Number of times rename has blocked due to SQ full (Count)
system.o3Cpu7.rename.renamedOperands         14064818                       # Number of destination operands rename has renamed (Count)
system.o3Cpu7.rename.lookups                 35756383                       # Number of register rename lookups that rename has made (Count)
system.o3Cpu7.rename.intLookups               8164596                       # Number of integer rename lookups (Count)
system.o3Cpu7.rename.fpLookups                9589286                       # Number of floating rename lookups (Count)
system.o3Cpu7.rename.committedMaps           13949983                       # Number of HB maps that are committed (Count)
system.o3Cpu7.rename.undoneMaps                114829                       # Number of HB maps that are undone due to squashing (Count)
system.o3Cpu7.rename.serializing                 3215                       # count of serializing insts renamed (Count)
system.o3Cpu7.rename.tempSerializing             3308                       # count of temporary serializing insts renamed (Count)
system.o3Cpu7.rename.skidInsts                2870131                       # count of insts added to the skid buffer (Count)
system.o3Cpu7.rob.reads                     427200742                       # The number of ROB reads (Count)
system.o3Cpu7.rob.writes                     22304436                       # The number of ROB writes (Count)
system.o3Cpu7.thread_0.numInsts               6689272                       # Number of Instructions committed (Count)
system.o3Cpu7.thread_0.numOps                11099416                       # Number of Ops committed (Count)
system.o3Cpu7.thread_0.numMemRefs                   0                       # Number of Memory References (Count)
system.pc.bad_addr.power_state.pwrStateResidencyTicks::UNDEFINED  84640958400                       # Cumulative time (in ticks) in various power states (Tick)
system.pc.com_1.power_state.pwrStateResidencyTicks::UNDEFINED  84640958400                       # Cumulative time (in ticks) in various power states (Tick)
system.pc.default_bus.power_state.pwrStateResidencyTicks::UNDEFINED  84640958400                       # Cumulative time (in ticks) in various power states (Tick)
system.pc.empty_isa.power_state.pwrStateResidencyTicks::UNDEFINED  84640958400                       # Cumulative time (in ticks) in various power states (Tick)
system.pc.fake_com_2.power_state.pwrStateResidencyTicks::UNDEFINED  84640958400                       # Cumulative time (in ticks) in various power states (Tick)
system.pc.fake_com_3.power_state.pwrStateResidencyTicks::UNDEFINED  84640958400                       # Cumulative time (in ticks) in various power states (Tick)
system.pc.fake_com_4.power_state.pwrStateResidencyTicks::UNDEFINED  84640958400                       # Cumulative time (in ticks) in various power states (Tick)
system.pc.fake_floppy.power_state.pwrStateResidencyTicks::UNDEFINED  84640958400                       # Cumulative time (in ticks) in various power states (Tick)
system.pc.pci_host.power_state.pwrStateResidencyTicks::UNDEFINED  84640958400                       # Cumulative time (in ticks) in various power states (Tick)
system.pc.south_bridge.cmos.power_state.pwrStateResidencyTicks::UNDEFINED  84640958400                       # Cumulative time (in ticks) in various power states (Tick)
system.pc.south_bridge.dma1.power_state.pwrStateResidencyTicks::UNDEFINED  84640958400                       # Cumulative time (in ticks) in various power states (Tick)
system.pc.south_bridge.ide.disks0.IdeDisk.dmaReadFullPages            0                       # Number of full page size DMA reads (not PRD). (Count)
system.pc.south_bridge.ide.disks0.IdeDisk.dmaReadBytes            0                       # Number of bytes transfered via DMA reads (not PRD). (Byte)
system.pc.south_bridge.ide.disks0.IdeDisk.dmaReadTxs            0                       # Number of DMA read transactions (not PRD). (Count)
system.pc.south_bridge.ide.disks0.IdeDisk.dmaWriteFullPages            0                       # Number of full page size DMA writes. (Count)
system.pc.south_bridge.ide.disks0.IdeDisk.dmaWriteBytes            0                       # Number of bytes transfered via DMA writes. (Byte)
system.pc.south_bridge.ide.disks0.IdeDisk.dmaWriteTxs            0                       # Number of DMA write transactions. (Count)
system.pc.south_bridge.ide.disks1.IdeDisk.dmaReadFullPages            0                       # Number of full page size DMA reads (not PRD). (Count)
system.pc.south_bridge.ide.disks1.IdeDisk.dmaReadBytes            0                       # Number of bytes transfered via DMA reads (not PRD). (Byte)
system.pc.south_bridge.ide.disks1.IdeDisk.dmaReadTxs            0                       # Number of DMA read transactions (not PRD). (Count)
system.pc.south_bridge.ide.disks1.IdeDisk.dmaWriteFullPages            0                       # Number of full page size DMA writes. (Count)
system.pc.south_bridge.ide.disks1.IdeDisk.dmaWriteBytes            0                       # Number of bytes transfered via DMA writes. (Byte)
system.pc.south_bridge.ide.disks1.IdeDisk.dmaWriteTxs            0                       # Number of DMA write transactions. (Count)
system.pc.south_bridge.ide.power_state.pwrStateResidencyTicks::UNDEFINED  84640958400                       # Cumulative time (in ticks) in various power states (Tick)
system.pc.south_bridge.io_apic.power_state.pwrStateResidencyTicks::UNDEFINED  84640958400                       # Cumulative time (in ticks) in various power states (Tick)
system.pc.south_bridge.keyboard.power_state.pwrStateResidencyTicks::UNDEFINED  84640958400                       # Cumulative time (in ticks) in various power states (Tick)
system.pc.south_bridge.pic1.power_state.pwrStateResidencyTicks::UNDEFINED  84640958400                       # Cumulative time (in ticks) in various power states (Tick)
system.pc.south_bridge.pic2.power_state.pwrStateResidencyTicks::UNDEFINED  84640958400                       # Cumulative time (in ticks) in various power states (Tick)
system.pc.south_bridge.pit.power_state.pwrStateResidencyTicks::UNDEFINED  84640958400                       # Cumulative time (in ticks) in various power states (Tick)
system.pc.south_bridge.speaker.power_state.pwrStateResidencyTicks::UNDEFINED  84640958400                       # Cumulative time (in ticks) in various power states (Tick)
system.workload.inst.arm                            0                       # number of arm instructions executed (Count)
system.workload.inst.quiesce                        0                       # number of quiesce instructions executed (Count)

---------- End Simulation Statistics   ----------
