
---------- Begin Simulation Statistics ----------
simSeconds                                   0.079529                       # Number of seconds simulated (Second)
simTicks                                  79528648000                       # Number of ticks simulated (Tick)
finalTick                                250772746623600                       # Number of ticks from beginning of simulation (restored from checkpoints and never reset) (Tick)
simFreq                                  1000000000000                       # The number of ticks per simulated second ((Tick/Second))
hostSeconds                                   8262.95                       # Real time elapsed on the host (Second)
hostTickRate                                  9624723                       # The number of ticks simulated per host second (ticks/s) ((Tick/Second))
hostMemory                                   19869008                       # Number of bytes of host memory used (Byte)
simInsts                                     57028826                       # Number of instructions simulated (Count)
simOps                                       93009854                       # Number of ops (including micro ops) simulated (Count)
hostInstRate                                     6902                       # Simulator instruction rate (inst/s) ((Count/Second))
hostOpRate                                      11256                       # Simulator op (including micro ops) rate (op/s) ((Count/Second))
system.caches.delayHistogram::bucket_size           16                       # delay histogram for all message (Unspecified)
system.caches.delayHistogram::max_bucket          159                       # delay histogram for all message (Unspecified)
system.caches.delayHistogram::samples        34938034                       # delay histogram for all message (Unspecified)
system.caches.delayHistogram::mean           0.618328                       # delay histogram for all message (Unspecified)
system.caches.delayHistogram::stdev          2.167230                       # delay histogram for all message (Unspecified)
system.caches.delayHistogram             |    34914353     99.93%     99.93% |       23130      0.07%    100.00% |         507      0.00%    100.00% |          35      0.00%    100.00% |           6      0.00%    100.00% |           3      0.00%    100.00% |           0      0.00%    100.00% |           0      0.00%    100.00% |           0      0.00%    100.00% |           0      0.00%    100.00% # delay histogram for all message (Unspecified)
system.caches.delayHistogram::total          34938034                       # delay histogram for all message (Unspecified)
system.caches.m_outstandReqHistSeqr::bucket_size            2                       (Unspecified)
system.caches.m_outstandReqHistSeqr::max_bucket           19                       (Unspecified)
system.caches.m_outstandReqHistSeqr::samples     32847384                       (Unspecified)
system.caches.m_outstandReqHistSeqr::mean     3.781800                       (Unspecified)
system.caches.m_outstandReqHistSeqr::gmean     2.493908                       (Unspecified)
system.caches.m_outstandReqHistSeqr::stdev     3.491796                       (Unspecified)
system.caches.m_outstandReqHistSeqr      |    13821299     42.08%     42.08% |     6576157     20.02%     62.10% |     3526444     10.74%     72.83% |     3035341      9.24%     82.07% |     2715829      8.27%     90.34% |     2240307      6.82%     97.16% |      544747      1.66%     98.82% |      155967      0.47%     99.30% |      231293      0.70%    100.00% |           0      0.00%    100.00% (Unspecified)
system.caches.m_outstandReqHistSeqr::total     32847384                       (Unspecified)
system.caches.m_latencyHistSeqr::bucket_size         1024                       (Unspecified)
system.caches.m_latencyHistSeqr::max_bucket        10239                       (Unspecified)
system.caches.m_latencyHistSeqr::samples     32854467                       (Unspecified)
system.caches.m_latencyHistSeqr::mean      175.576421                       (Unspecified)
system.caches.m_latencyHistSeqr::gmean       2.865497                       (Unspecified)
system.caches.m_latencyHistSeqr::stdev     474.317627                       (Unspecified)
system.caches.m_latencyHistSeqr          |    30391157     92.50%     92.50% |     2062365      6.28%     98.78% |      343179      1.04%     99.82% |       56846      0.17%    100.00% |         913      0.00%    100.00% |           7      0.00%    100.00% |           0      0.00%    100.00% |           0      0.00%    100.00% |           0      0.00%    100.00% |           0      0.00%    100.00% (Unspecified)
system.caches.m_latencyHistSeqr::total       32854467                       (Unspecified)
system.caches.m_hitLatencyHistSeqr::bucket_size          256                       (Unspecified)
system.caches.m_hitLatencyHistSeqr::max_bucket         2559                       (Unspecified)
system.caches.m_hitLatencyHistSeqr::samples     27817333                       (Unspecified)
system.caches.m_hitLatencyHistSeqr::mean     1.009564                       (Unspecified)
system.caches.m_hitLatencyHistSeqr::gmean     1.000293                       (Unspecified)
system.caches.m_hitLatencyHistSeqr::stdev     3.132174                       (Unspecified)
system.caches.m_hitLatencyHistSeqr       |    27817053    100.00%    100.00% |          32      0.00%    100.00% |         107      0.00%    100.00% |          57      0.00%    100.00% |          37      0.00%    100.00% |          23      0.00%    100.00% |          11      0.00%    100.00% |           7      0.00%    100.00% |           5      0.00%    100.00% |           1      0.00%    100.00% (Unspecified)
system.caches.m_hitLatencyHistSeqr::total     27817333                       (Unspecified)
system.caches.m_missLatencyHistSeqr::bucket_size         1024                       (Unspecified)
system.caches.m_missLatencyHistSeqr::max_bucket        10239                       (Unspecified)
system.caches.m_missLatencyHistSeqr::samples      5037134                       (Unspecified)
system.caches.m_missLatencyHistSeqr::mean  1139.613590                       (Unspecified)
system.caches.m_missLatencyHistSeqr::gmean   957.990944                       (Unspecified)
system.caches.m_missLatencyHistSeqr::stdev   608.023364                       (Unspecified)
system.caches.m_missLatencyHistSeqr      |     2573908     51.10%     51.10% |     2062287     40.94%     92.04% |      343173      6.81%     98.85% |       56846      1.13%     99.98% |         913      0.02%    100.00% |           7      0.00%    100.00% |           0      0.00%    100.00% |           0      0.00%    100.00% |           0      0.00%    100.00% |           0      0.00%    100.00% (Unspecified)
system.caches.m_missLatencyHistSeqr::total      5037134                       (Unspecified)
system.caches.delayVCHist.vnet_0::bucket_size           16                       # delay histogram for vnet_0 (Unspecified)
system.caches.delayVCHist.vnet_0::max_bucket          159                       # delay histogram for vnet_0 (Unspecified)
system.caches.delayVCHist.vnet_0::samples     14926500                       # delay histogram for vnet_0 (Unspecified)
system.caches.delayVCHist.vnet_0::mean       1.410885                       # delay histogram for vnet_0 (Unspecified)
system.caches.delayVCHist.vnet_0::stdev      3.101469                       # delay histogram for vnet_0 (Unspecified)
system.caches.delayVCHist.vnet_0         |    14905583     99.86%     99.86% |       20671      0.14%    100.00% |         202      0.00%    100.00% |          35      0.00%    100.00% |           6      0.00%    100.00% |           3      0.00%    100.00% |           0      0.00%    100.00% |           0      0.00%    100.00% |           0      0.00%    100.00% |           0      0.00%    100.00% # delay histogram for vnet_0 (Unspecified)
system.caches.delayVCHist.vnet_0::total      14926500                       # delay histogram for vnet_0 (Unspecified)
system.caches.delayVCHist.vnet_1::bucket_size            8                       # delay histogram for vnet_1 (Unspecified)
system.caches.delayVCHist.vnet_1::max_bucket           79                       # delay histogram for vnet_1 (Unspecified)
system.caches.delayVCHist.vnet_1::samples     19935428                       # delay histogram for vnet_1 (Unspecified)
system.caches.delayVCHist.vnet_1::mean       0.027266                       # delay histogram for vnet_1 (Unspecified)
system.caches.delayVCHist.vnet_1::stdev      0.456296                       # delay histogram for vnet_1 (Unspecified)
system.caches.delayVCHist.vnet_1         |    19922040     99.93%     99.93% |       10624      0.05%     99.99% |        1888      0.01%    100.00% |         571      0.00%    100.00% |         267      0.00%    100.00% |          38      0.00%    100.00% |           0      0.00%    100.00% |           0      0.00%    100.00% |           0      0.00%    100.00% |           0      0.00%    100.00% # delay histogram for vnet_1 (Unspecified)
system.caches.delayVCHist.vnet_1::total      19935428                       # delay histogram for vnet_1 (Unspecified)
system.caches.delayVCHist.vnet_2::bucket_size            1                       # delay histogram for vnet_2 (Unspecified)
system.caches.delayVCHist.vnet_2::max_bucket            9                       # delay histogram for vnet_2 (Unspecified)
system.caches.delayVCHist.vnet_2::samples        76106                       # delay histogram for vnet_2 (Unspecified)
system.caches.delayVCHist.vnet_2::mean       0.000263                       # delay histogram for vnet_2 (Unspecified)
system.caches.delayVCHist.vnet_2::stdev      0.022924                       # delay histogram for vnet_2 (Unspecified)
system.caches.delayVCHist.vnet_2         |       76096     99.99%     99.99% |           0      0.00%     99.99% |          10      0.01%    100.00% |           0      0.00%    100.00% |           0      0.00%    100.00% |           0      0.00%    100.00% |           0      0.00%    100.00% |           0      0.00%    100.00% |           0      0.00%    100.00% |           0      0.00%    100.00% # delay histogram for vnet_2 (Unspecified)
system.caches.delayVCHist.vnet_2::total         76106                       # delay histogram for vnet_2 (Unspecified)
system.caches.L1Cache_Controller.Load    |      722736     12.78%     12.78% |      728132     12.87%     25.65% |      714180     12.63%     38.28% |      694488     12.28%     50.56% |      688969     12.18%     62.74% |      709635     12.55%     75.29% |      703980     12.45%     87.74% |      693323     12.26%    100.00% (Unspecified)
system.caches.L1Cache_Controller.Load::total      5655443                       (Unspecified)
system.caches.L1Cache_Controller.Ifetch  |      844126     12.57%     12.57% |      907574     13.52%     26.09% |      845108     12.59%     38.68% |      815384     12.15%     50.83% |      796720     11.87%     62.69% |      842196     12.54%     75.24% |      867725     12.92%     88.16% |      794758     11.84%    100.00% (Unspecified)
system.caches.L1Cache_Controller.Ifetch::total      6713591                       (Unspecified)
system.caches.L1Cache_Controller.Store   |     2568853     12.54%     12.54% |     2600029     12.69%     25.23% |     2558075     12.49%     37.72% |     2548502     12.44%     50.16% |     2541108     12.40%     62.56% |     2562224     12.51%     75.07% |     2576315     12.58%     87.65% |     2530349     12.35%    100.00% (Unspecified)
system.caches.L1Cache_Controller.Store::total     20485455                       (Unspecified)
system.caches.L1Cache_Controller.Inv     |        8482     11.24%     11.24% |        8869     11.75%     22.99% |        9972     13.21%     36.21% |        8858     11.74%     47.95% |       12186     16.15%     64.10% |        8589     11.38%     75.48% |        8646     11.46%     86.93% |        9859     13.07%    100.00% (Unspecified)
system.caches.L1Cache_Controller.Inv::total        75461                       (Unspecified)
system.caches.L1Cache_Controller.L1_Replacement |      624441     12.51%     12.51% |      630060     12.62%     25.12% |      623140     12.48%     37.60% |      622639     12.47%     50.07% |      622168     12.46%     62.53% |      624977     12.52%     75.05% |      626647     12.55%     87.60% |      619381     12.40%    100.00% (Unspecified)
system.caches.L1Cache_Controller.L1_Replacement::total      4993453                       (Unspecified)
system.caches.L1Cache_Controller.Fwd_GETS |         594     92.09%     92.09% |          24      3.72%     95.81% |           8      1.24%     97.05% |           7      1.09%     98.14% |           3      0.47%     98.60% |           3      0.47%     99.07% |           2      0.31%     99.38% |           4      0.62%    100.00% (Unspecified)
system.caches.L1Cache_Controller.Fwd_GETS::total          645                       (Unspecified)
system.caches.L1Cache_Controller.Data    |         176    100.00%    100.00% |           0      0.00%    100.00% |           0      0.00%    100.00% |           0      0.00%    100.00% |           0      0.00%    100.00% |           0      0.00%    100.00% |           0      0.00%    100.00% |           0      0.00%    100.00% (Unspecified)
system.caches.L1Cache_Controller.Data::total          176                       (Unspecified)
system.caches.L1Cache_Controller.Data_Exclusive |      300417     12.49%     12.49% |      301655     12.54%     25.02% |      300020     12.47%     37.49% |      300755     12.50%     49.99% |      301159     12.52%     62.51% |      301094     12.51%     75.03% |      301121     12.52%     87.54% |      299767     12.46%    100.00% (Unspecified)
system.caches.L1Cache_Controller.Data_Exclusive::total      2405988                       (Unspecified)
system.caches.L1Cache_Controller.DataS_fromL1 |          12      1.86%      1.86% |         374     57.98%     59.84% |         133     20.62%     80.47% |          72     11.16%     91.63% |          26      4.03%     95.66% |           9      1.40%     97.05% |           9      1.40%     98.45% |          10      1.55%    100.00% (Unspecified)
system.caches.L1Cache_Controller.DataS_fromL1::total          645                       (Unspecified)
system.caches.L1Cache_Controller.Data_all_Acks |      330069     12.55%     12.55% |      333492     12.68%     25.23% |      328343     12.48%     37.72% |      327104     12.44%     50.15% |      326242     12.40%     62.56% |      329145     12.52%     75.07% |      330737     12.58%     87.65% |      324821     12.35%    100.00% (Unspecified)
system.caches.L1Cache_Controller.Data_all_Acks::total      2629953                       (Unspecified)
system.caches.L1Cache_Controller.Ack     |        2352    100.00%    100.00% |           0      0.00%    100.00% |           0      0.00%    100.00% |           0      0.00%    100.00% |           0      0.00%    100.00% |           0      0.00%    100.00% |           0      0.00%    100.00% |           0      0.00%    100.00% (Unspecified)
system.caches.L1Cache_Controller.Ack::total         2352                       (Unspecified)
system.caches.L1Cache_Controller.Ack_all |         548    100.00%    100.00% |           0      0.00%    100.00% |           0      0.00%    100.00% |           0      0.00%    100.00% |           0      0.00%    100.00% |           0      0.00%    100.00% |           0      0.00%    100.00% |           0      0.00%    100.00% (Unspecified)
system.caches.L1Cache_Controller.Ack_all::total          548                       (Unspecified)
system.caches.L1Cache_Controller.WB_Ack  |      616532     12.51%     12.51% |      622536     12.64%     25.15% |      614411     12.47%     37.62% |      615104     12.48%     50.10% |      611159     12.40%     62.51% |      617352     12.53%     75.04% |      619070     12.57%     87.60% |      610708     12.40%    100.00% (Unspecified)
system.caches.L1Cache_Controller.WB_Ack::total      4926872                       (Unspecified)
system.caches.L1Cache_Controller.NP.Load |      303320     12.48%     12.48% |      304700     12.54%     25.02% |      302956     12.47%     37.49% |      303801     12.50%     49.99% |      304100     12.51%     62.51% |      304232     12.52%     75.03% |      304145     12.52%     87.54% |      302683     12.46%    100.00% (Unspecified)
system.caches.L1Cache_Controller.NP.Load::total      2429937                       (Unspecified)
system.caches.L1Cache_Controller.NP.Ifetch |        2447     23.05%     23.05% |        1057      9.96%     33.01% |        1211     11.41%     44.42% |        1054      9.93%     54.35% |        1195     11.26%     65.61% |        1218     11.48%     77.09% |        1232     11.61%     88.69% |        1200     11.31%    100.00% (Unspecified)
system.caches.L1Cache_Controller.NP.Ifetch::total        10614                       (Unspecified)
system.caches.L1Cache_Controller.NP.Store |      318857     12.49%     12.49% |      324379     12.70%     25.19% |      319042     12.49%     37.68% |      317886     12.45%     50.13% |      316938     12.41%     62.54% |      319590     12.52%     75.06% |      321331     12.58%     87.64% |      315569     12.36%    100.00% (Unspecified)
system.caches.L1Cache_Controller.NP.Store::total      2553592                       (Unspecified)
system.caches.L1Cache_Controller.NP.Inv  |         131      5.61%      5.61% |         238     10.19%     15.80% |         299     12.81%     28.61% |         339     14.52%     43.13% |         318     13.62%     56.75% |         335     14.35%     71.09% |         340     14.56%     85.65% |         335     14.35%    100.00% (Unspecified)
system.caches.L1Cache_Controller.NP.Inv::total         2335                       (Unspecified)
system.caches.L1Cache_Controller.I.Load  |         433     10.39%     10.39% |         691     16.59%     26.98% |         595     14.28%     41.26% |         505     12.12%     53.38% |         516     12.39%     65.77% |         491     11.79%     77.56% |         470     11.28%     88.84% |         465     11.16%    100.00% (Unspecified)
system.caches.L1Cache_Controller.I.Load::total         4166                       (Unspecified)
system.caches.L1Cache_Controller.I.Ifetch |        5355     14.64%     14.64% |        4451     12.17%     26.80% |        4452     12.17%     38.97% |        4462     12.20%     51.16% |        4471     12.22%     63.38% |        4466     12.21%     75.59% |        4462     12.20%     87.79% |        4469     12.21%    100.00% (Unspecified)
system.caches.L1Cache_Controller.I.Ifetch::total        36588                       (Unspecified)
system.caches.L1Cache_Controller.I.Store |         264     14.01%     14.01% |         246     13.05%     27.06% |         242     12.84%     39.89% |         226     11.99%     51.88% |         210     11.14%     63.02% |         254     13.47%     76.50% |         229     12.15%     88.65% |         214     11.35%    100.00% (Unspecified)
system.caches.L1Cache_Controller.I.Store::total         1885                       (Unspecified)
system.caches.L1Cache_Controller.I.L1_Replacement |        2192      7.37%      7.37% |        3148     10.59%     17.96% |        4292     14.43%     32.39% |        3212     10.80%     43.20% |        6590     22.16%     65.36% |        2961      9.96%     75.32% |        3048     10.25%     85.57% |        4291     14.43%    100.00% (Unspecified)
system.caches.L1Cache_Controller.I.L1_Replacement::total        29734                       (Unspecified)
system.caches.L1Cache_Controller.S.Load  |       24140     10.63%     10.63% |       40778     17.95%     28.58% |       34898     15.37%     43.95% |       29458     12.97%     56.92% |       26627     11.72%     68.64% |       24814     10.93%     79.57% |       23064     10.15%     89.72% |       23344     10.28%    100.00% (Unspecified)
system.caches.L1Cache_Controller.S.Load::total       227123                       (Unspecified)
system.caches.L1Cache_Controller.S.Ifetch |      836324     12.55%     12.55% |      902066     13.53%     26.08% |      839445     12.59%     38.67% |      809868     12.15%     50.82% |      791054     11.87%     62.68% |      836512     12.55%     75.23% |      862031     12.93%     88.16% |      789089     11.84%    100.00% (Unspecified)
system.caches.L1Cache_Controller.S.Ifetch::total      6666389                       (Unspecified)
system.caches.L1Cache_Controller.S.Store |         372    100.00%    100.00% |           0      0.00%    100.00% |           0      0.00%    100.00% |           0      0.00%    100.00% |           0      0.00%    100.00% |           0      0.00%    100.00% |           0      0.00%    100.00% |           0      0.00%    100.00% (Unspecified)
system.caches.L1Cache_Controller.S.Store::total          372                       (Unspecified)
system.caches.L1Cache_Controller.S.Inv   |        5488     14.18%     14.18% |        4905     12.67%     26.85% |        4765     12.31%     39.16% |        4760     12.30%     51.45% |        4722     12.20%     63.65% |        4694     12.13%     75.78% |        4682     12.10%     87.87% |        4694     12.13%    100.00% (Unspecified)
system.caches.L1Cache_Controller.S.Inv::total        38710                       (Unspecified)
system.caches.L1Cache_Controller.S.L1_Replacement |        5717     15.52%     15.52% |        4376     11.88%     27.40% |        4437     12.04%     39.44% |        4322     11.73%     51.17% |        4418     11.99%     63.16% |        4661     12.65%     75.81% |        4529     12.29%     88.11% |        4381     11.89%    100.00% (Unspecified)
system.caches.L1Cache_Controller.S.L1_Replacement::total        36841                       (Unspecified)
system.caches.L1Cache_Controller.E.Load  |      358704     12.72%     12.72% |      362224     12.84%     25.56% |      355713     12.61%     38.18% |      341102     12.10%     50.27% |      338268     12.00%     62.27% |      360329     12.78%     75.05% |      356558     12.64%     87.69% |      347118     12.31%    100.00% (Unspecified)
system.caches.L1Cache_Controller.E.Load::total      2820016                       (Unspecified)
system.caches.L1Cache_Controller.E.Store |         857     17.33%     17.33% |         612     12.38%     29.71% |         567     11.47%     41.18% |         580     11.73%     52.91% |         592     11.97%     64.89% |         584     11.81%     76.70% |         577     11.67%     88.37% |         575     11.63%    100.00% (Unspecified)
system.caches.L1Cache_Controller.E.Store::total         4944                       (Unspecified)
system.caches.L1Cache_Controller.E.Inv   |        1269      8.81%      8.81% |        1466     10.18%     19.00% |        1848     12.84%     31.83% |        1669     11.59%     43.43% |        2520     17.50%     60.93% |        2001     13.90%     74.83% |        1668     11.59%     86.41% |        1956     13.59%    100.00% (Unspecified)
system.caches.L1Cache_Controller.E.Inv::total        14397                       (Unspecified)
system.caches.L1Cache_Controller.E.L1_Replacement |      294225     12.36%     12.36% |      299041     12.57%     24.93% |      297228     12.49%     37.42% |      298165     12.53%     49.95% |      297716     12.51%     62.46% |      298182     12.53%     74.98% |      298535     12.54%     87.53% |      296799     12.47%    100.00% (Unspecified)
system.caches.L1Cache_Controller.E.L1_Replacement::total      2379891                       (Unspecified)
system.caches.L1Cache_Controller.E.Fwd_GETS |          45     46.88%     46.88% |          24     25.00%     71.88% |           8      8.33%     80.21% |           7      7.29%     87.50% |           3      3.12%     90.62% |           3      3.12%     93.75% |           2      2.08%     95.83% |           4      4.17%    100.00% (Unspecified)
system.caches.L1Cache_Controller.E.Fwd_GETS::total           96                       (Unspecified)
system.caches.L1Cache_Controller.M.Load  |       36139     20.75%     20.75% |       19739     11.33%     32.08% |       20018     11.49%     43.57% |       19622     11.26%     54.83% |       19458     11.17%     66.00% |       19769     11.35%     77.35% |       19743     11.33%     88.68% |       19713     11.32%    100.00% (Unspecified)
system.caches.L1Cache_Controller.M.Load::total       174201                       (Unspecified)
system.caches.L1Cache_Controller.M.Store |     2248503     12.54%     12.54% |     2274792     12.69%     25.24% |     2238224     12.49%     37.72% |     2229810     12.44%     50.16% |     2223367     12.40%     62.57% |     2241795     12.51%     75.07% |     2254178     12.58%     87.65% |     2213991     12.35%    100.00% (Unspecified)
system.caches.L1Cache_Controller.M.Store::total     17924660                       (Unspecified)
system.caches.L1Cache_Controller.M.Inv   |        1594      7.98%      7.98% |        2254     11.29%     19.28% |        3038     15.22%     34.49% |        2076     10.40%     44.89% |        4617     23.13%     68.02% |        1556      7.79%     75.82% |        1954      9.79%     85.60% |        2874     14.40%    100.00% (Unspecified)
system.caches.L1Cache_Controller.M.Inv::total        19963                       (Unspecified)
system.caches.L1Cache_Controller.M.L1_Replacement |      322307     12.65%     12.65% |      323495     12.70%     25.36% |      317183     12.45%     37.81% |      316939     12.44%     50.25% |      313443     12.31%     62.56% |      319170     12.53%     75.09% |      320535     12.58%     87.68% |      313909     12.32%    100.00% (Unspecified)
system.caches.L1Cache_Controller.M.L1_Replacement::total      2546981                       (Unspecified)
system.caches.L1Cache_Controller.M.Fwd_GETS |         549    100.00%    100.00% |           0      0.00%    100.00% |           0      0.00%    100.00% |           0      0.00%    100.00% |           0      0.00%    100.00% |           0      0.00%    100.00% |           0      0.00%    100.00% |           0      0.00%    100.00% (Unspecified)
system.caches.L1Cache_Controller.M.Fwd_GETS::total          549                       (Unspecified)
system.caches.L1Cache_Controller.IS.Inv  |           0      0.00%      0.00% |           6     11.11%     11.11% |          22     40.74%     51.85% |          14     25.93%     77.78% |           8     14.81%     92.59% |           2      3.70%     96.30% |           2      3.70%    100.00% |           0      0.00%    100.00% (Unspecified)
system.caches.L1Cache_Controller.IS.Inv::total           54                       (Unspecified)
system.caches.L1Cache_Controller.IS.L1_Replacement |           0      0.00%      0.00% |           0      0.00%      0.00% |           0      0.00%      0.00% |           1     16.67%     16.67% |           1     16.67%     33.33% |           3     50.00%     83.33% |           0      0.00%     83.33% |           1     16.67%    100.00% (Unspecified)
system.caches.L1Cache_Controller.IS.L1_Replacement::total            6                       (Unspecified)
system.caches.L1Cache_Controller.IS.Data_Exclusive |      300417     12.49%     12.49% |      301655     12.54%     25.02% |      300020     12.47%     37.49% |      300755     12.50%     49.99% |      301159     12.52%     62.51% |      301094     12.51%     75.03% |      301121     12.52%     87.54% |      299767     12.46%    100.00% (Unspecified)
system.caches.L1Cache_Controller.IS.Data_Exclusive::total      2405988                       (Unspecified)
system.caches.L1Cache_Controller.IS.DataS_fromL1 |          12      1.86%      1.86% |         374     57.98%     59.84% |         133     20.62%     80.47% |          72     11.16%     91.63% |          26      4.03%     95.66% |           9      1.40%     97.05% |           9      1.40%     98.45% |          10      1.55%    100.00% (Unspecified)
system.caches.L1Cache_Controller.IS.DataS_fromL1::total          645                       (Unspecified)
system.caches.L1Cache_Controller.IS.Data_all_Acks |       11125     14.91%     14.91% |        8862     11.88%     26.79% |        9038     12.11%     38.90% |        8979     12.04%     50.94% |        9087     12.18%     63.12% |        9300     12.47%     75.59% |        9176     12.30%     87.88% |        9039     12.12%    100.00% (Unspecified)
system.caches.L1Cache_Controller.IS.Data_all_Acks::total        74606                       (Unspecified)
system.caches.L1Cache_Controller.IM.Data |         176    100.00%    100.00% |           0      0.00%    100.00% |           0      0.00%    100.00% |           0      0.00%    100.00% |           0      0.00%    100.00% |           0      0.00%    100.00% |           0      0.00%    100.00% |           0      0.00%    100.00% (Unspecified)
system.caches.L1Cache_Controller.IM.Data::total          176                       (Unspecified)
system.caches.L1Cache_Controller.IM.Data_all_Acks |      318944     12.48%     12.48% |      324624     12.70%     25.19% |      319283     12.49%     37.68% |      318111     12.45%     50.13% |      317147     12.41%     62.54% |      319843     12.52%     75.06% |      321559     12.58%     87.64% |      315782     12.36%    100.00% (Unspecified)
system.caches.L1Cache_Controller.IM.Data_all_Acks::total      2555293                       (Unspecified)
system.caches.L1Cache_Controller.SM.Ack  |        2352    100.00%    100.00% |           0      0.00%    100.00% |           0      0.00%    100.00% |           0      0.00%    100.00% |           0      0.00%    100.00% |           0      0.00%    100.00% |           0      0.00%    100.00% |           0      0.00%    100.00% (Unspecified)
system.caches.L1Cache_Controller.SM.Ack::total         2352                       (Unspecified)
system.caches.L1Cache_Controller.SM.Ack_all |         548    100.00%    100.00% |           0      0.00%    100.00% |           0      0.00%    100.00% |           0      0.00%    100.00% |           0      0.00%    100.00% |           0      0.00%    100.00% |           0      0.00%    100.00% |           0      0.00%    100.00% (Unspecified)
system.caches.L1Cache_Controller.SM.Ack_all::total          548                       (Unspecified)
system.caches.L1Cache_Controller.IS_I.Data_all_Acks |           0      0.00%      0.00% |           6     11.11%     11.11% |          22     40.74%     51.85% |          14     25.93%     77.78% |           8     14.81%     92.59% |           2      3.70%     96.30% |           2      3.70%    100.00% |           0      0.00%    100.00% (Unspecified)
system.caches.L1Cache_Controller.IS_I.Data_all_Acks::total           54                       (Unspecified)
system.caches.L1Cache_Controller.M_I.Store |           0      0.00%      0.00% |           0      0.00%      0.00% |           0      0.00%      0.00% |           0      0.00%      0.00% |           1     50.00%     50.00% |           1     50.00%    100.00% |           0      0.00%    100.00% |           0      0.00%    100.00% (Unspecified)
system.caches.L1Cache_Controller.M_I.Store::total            2                       (Unspecified)
system.caches.L1Cache_Controller.M_I.Inv |           0      0.00%      0.00% |           0      0.00%      0.00% |           0      0.00%      0.00% |           0      0.00%      0.00% |           1     50.00%     50.00% |           1     50.00%    100.00% |           0      0.00%    100.00% |           0      0.00%    100.00% (Unspecified)
system.caches.L1Cache_Controller.M_I.Inv::total            2                       (Unspecified)
system.caches.L1Cache_Controller.M_I.WB_Ack |      616532     12.51%     12.51% |      622536     12.64%     25.15% |      614411     12.47%     37.62% |      615104     12.48%     50.10% |      611158     12.40%     62.51% |      617351     12.53%     75.04% |      619070     12.57%     87.60% |      610708     12.40%    100.00% (Unspecified)
system.caches.L1Cache_Controller.M_I.WB_Ack::total      4926870                       (Unspecified)
system.caches.L1Cache_Controller.SINK_WB_ACK.WB_Ack |           0      0.00%      0.00% |           0      0.00%      0.00% |           0      0.00%      0.00% |           0      0.00%      0.00% |           1     50.00%     50.00% |           1     50.00%    100.00% |           0      0.00%    100.00% |           0      0.00%    100.00% (Unspecified)
system.caches.L1Cache_Controller.SINK_WB_ACK.WB_Ack::total            2                       (Unspecified)
system.caches.Directory_Controller.Fetch |        5748      0.12%      0.12% |     4941920     99.88%    100.00% (Unspecified)
system.caches.Directory_Controller.Fetch::total      4947668                       (Unspecified)
system.caches.Directory_Controller.Data  |         188      0.01%      0.01% |     2585399     99.99%    100.00% (Unspecified)
system.caches.Directory_Controller.Data::total      2585587                       (Unspecified)
system.caches.Directory_Controller.Memory_Data |        5748      0.12%      0.12% |     4941900     99.88%    100.00% (Unspecified)
system.caches.Directory_Controller.Memory_Data::total      4947648                       (Unspecified)
system.caches.Directory_Controller.Memory_Ack |         188      0.01%      0.01% |     2585399     99.99%    100.00% (Unspecified)
system.caches.Directory_Controller.Memory_Ack::total      2585587                       (Unspecified)
system.caches.Directory_Controller.CleanReplacement |        5570      0.24%      0.24% |     2356511     99.76%    100.00% (Unspecified)
system.caches.Directory_Controller.CleanReplacement::total      2362081                       (Unspecified)
system.caches.Directory_Controller.I.Fetch |        5748      0.12%      0.12% |     4941920     99.88%    100.00% (Unspecified)
system.caches.Directory_Controller.I.Fetch::total      4947668                       (Unspecified)
system.caches.Directory_Controller.M.Data |         188      0.01%      0.01% |     2585399     99.99%    100.00% (Unspecified)
system.caches.Directory_Controller.M.Data::total      2585587                       (Unspecified)
system.caches.Directory_Controller.M.CleanReplacement |        5570      0.24%      0.24% |     2356511     99.76%    100.00% (Unspecified)
system.caches.Directory_Controller.M.CleanReplacement::total      2362081                       (Unspecified)
system.caches.Directory_Controller.IM.Memory_Data |        5748      0.12%      0.12% |     4941900     99.88%    100.00% (Unspecified)
system.caches.Directory_Controller.IM.Memory_Data::total      4947648                       (Unspecified)
system.caches.Directory_Controller.MI.Memory_Ack |         188      0.01%      0.01% |     2585399     99.99%    100.00% (Unspecified)
system.caches.Directory_Controller.MI.Memory_Ack::total      2585587                       (Unspecified)
system.caches.L2Cache_Controller.L1_GET_INSTR |        5651     11.97%     11.97% |        7075     14.99%     26.96% |        4992     10.57%     37.53% |        4045      8.57%     46.10% |        5535     11.72%     57.83% |        7033     14.90%     72.72% |        6634     14.05%     86.78% |        6242     13.22%    100.00% (Unspecified)
system.caches.L2Cache_Controller.L1_GET_INSTR::total        47207                       (Unspecified)
system.caches.L2Cache_Controller.L1_GETS |      308192     12.66%     12.66% |      305608     12.55%     25.21% |      304233     12.50%     37.71% |      303187     12.45%     50.16% |      302913     12.44%     62.60% |      302791     12.44%     75.04% |      303373     12.46%     87.50% |      304362     12.50%    100.00% (Unspecified)
system.caches.L2Cache_Controller.L1_GETS::total      2434659                       (Unspecified)
system.caches.L2Cache_Controller.L1_GETX |      319986     12.52%     12.52% |      319748     12.51%     25.03% |      318209     12.45%     37.49% |      319027     12.48%     49.97% |      318887     12.48%     62.45% |      320475     12.54%     74.99% |      319415     12.50%     87.49% |      319746     12.51%    100.00% (Unspecified)
system.caches.L2Cache_Controller.L1_GETX::total      2555493                       (Unspecified)
system.caches.L2Cache_Controller.L1_UPGRADE |          29      6.35%      6.35% |          80     17.51%     23.85% |           0      0.00%     23.85% |           0      0.00%     23.85% |           0      0.00%     23.85% |           0      0.00%     23.85% |         348     76.15%    100.00% |           0      0.00%    100.00% (Unspecified)
system.caches.L2Cache_Controller.L1_UPGRADE::total          457                       (Unspecified)
system.caches.L2Cache_Controller.L1_PUTX |      616170     12.51%     12.51% |      616519     12.51%     25.02% |      614974     12.48%     37.50% |      615486     12.49%     49.99% |      615397     12.49%     62.48% |      616436     12.51%     75.00% |      615771     12.50%     87.49% |      616117     12.51%    100.00% (Unspecified)
system.caches.L2Cache_Controller.L1_PUTX::total      4926870                       (Unspecified)
system.caches.L2Cache_Controller.L1_PUTX_old |           3    100.00%    100.00% |           0      0.00%    100.00% |           0      0.00%    100.00% |           0      0.00%    100.00% |           0      0.00%    100.00% |           0      0.00%    100.00% |           0      0.00%    100.00% |           0      0.00%    100.00% (Unspecified)
system.caches.L2Cache_Controller.L1_PUTX_old::total            3                       (Unspecified)
system.caches.L2Cache_Controller.L2_Replacement |      321148     12.51%     12.51% |      320918     12.50%     25.00% |      320769     12.49%     37.49% |      321005     12.50%     49.99% |      320785     12.49%     62.49% |      321246     12.51%     75.00% |      320930     12.50%     87.49% |      321160     12.51%    100.00% (Unspecified)
system.caches.L2Cache_Controller.L2_Replacement::total      2567961                       (Unspecified)
system.caches.L2Cache_Controller.L2_Replacement_clean |      297794     12.51%     12.51% |      297935     12.52%     25.03% |      296868     12.47%     37.51% |      297161     12.49%     50.00% |      297468     12.50%     62.50% |      297656     12.51%     75.00% |      297371     12.50%     87.50% |      297454     12.50%    100.00% (Unspecified)
system.caches.L2Cache_Controller.L2_Replacement_clean::total      2379707                       (Unspecified)
system.caches.L2Cache_Controller.Mem_Data |      618939     12.51%     12.51% |      618850     12.51%     25.02% |      617634     12.48%     37.50% |      618162     12.49%     50.00% |      618251     12.50%     62.49% |      618901     12.51%     75.00% |      618298     12.50%     87.50% |      618613     12.50%    100.00% (Unspecified)
system.caches.L2Cache_Controller.Mem_Data::total      4947648                       (Unspecified)
system.caches.L2Cache_Controller.Mem_Ack |      618942     12.51%     12.51% |      618853     12.51%     25.02% |      617637     12.48%     37.50% |      618166     12.49%     50.00% |      618253     12.50%     62.49% |      618902     12.51%     75.00% |      618301     12.50%     87.50% |      618614     12.50%    100.00% (Unspecified)
system.caches.L2Cache_Controller.Mem_Ack::total      4947668                       (Unspecified)
system.caches.L2Cache_Controller.WB_Data |        2878     14.03%     14.03% |        2597     12.66%     26.69% |        1819      8.87%     35.56% |        2369     11.55%     47.11% |        2246     10.95%     58.06% |        3036     14.80%     72.86% |        2788     13.59%     86.45% |        2780     13.55%    100.00% (Unspecified)
system.caches.L2Cache_Controller.WB_Data::total        20513                       (Unspecified)
system.caches.L2Cache_Controller.WB_Data_clean |          18     18.56%     18.56% |          25     25.77%     44.33% |          11     11.34%     55.67% |           7      7.22%     62.89% |          10     10.31%     73.20% |           4      4.12%     77.32% |           2      2.06%     79.38% |          20     20.62%    100.00% (Unspecified)
system.caches.L2Cache_Controller.WB_Data_clean::total           97                       (Unspecified)
system.caches.L2Cache_Controller.Ack     |        4493     13.67%     13.67% |        4427     13.47%     27.15% |        3859     11.74%     38.89% |        3510     10.68%     49.57% |        4586     13.96%     63.53% |        4364     13.28%     76.81% |        3810     11.60%     88.41% |        3809     11.59%    100.00% (Unspecified)
system.caches.L2Cache_Controller.Ack::total        32858                       (Unspecified)
system.caches.L2Cache_Controller.Ack_all |        2751     13.68%     13.68% |        2988     14.86%     28.54% |        2298     11.43%     39.97% |        2266     11.27%     51.23% |        2599     12.92%     64.16% |        2445     12.16%     76.32% |        2370     11.79%     88.10% |        2393     11.90%    100.00% (Unspecified)
system.caches.L2Cache_Controller.Ack_all::total        20110                       (Unspecified)
system.caches.L2Cache_Controller.Unblock |         179     27.75%     27.75% |         105     16.28%     44.03% |          11      1.71%     45.74% |           7      1.09%     46.82% |          10      1.55%     48.37% |           4      0.62%     48.99% |         309     47.91%     96.90% |          20      3.10%    100.00% (Unspecified)
system.caches.L2Cache_Controller.Unblock::total          645                       (Unspecified)
system.caches.L2Cache_Controller.Exclusive_Unblock |      621029     12.52%     12.52% |      621306     12.52%     25.04% |      618416     12.46%     37.50% |      619508     12.49%     49.99% |      619488     12.49%     62.47% |      621196     12.52%     74.99% |      620316     12.50%     87.49% |      620570     12.51%    100.00% (Unspecified)
system.caches.L2Cache_Controller.Exclusive_Unblock::total      4961829                       (Unspecified)
system.caches.L2Cache_Controller.NP.L1_GET_INSTR |         762     13.76%     13.76% |         779     14.06%     27.82% |         663     11.97%     39.79% |         607     10.96%     50.75% |         742     13.40%     64.15% |         695     12.55%     76.69% |         601     10.85%     87.54% |         690     12.46%    100.00% (Unspecified)
system.caches.L2Cache_Controller.NP.L1_GET_INSTR::total         5539                       (Unspecified)
system.caches.L2Cache_Controller.NP.L1_GETS |      299423     12.51%     12.51% |      299408     12.51%     25.02% |      298912     12.49%     37.50% |      299131     12.50%     50.00% |      299127     12.50%     62.50% |      299263     12.50%     75.00% |      299190     12.50%     87.50% |      299256     12.50%    100.00% (Unspecified)
system.caches.L2Cache_Controller.NP.L1_GETS::total      2393710                       (Unspecified)
system.caches.L2Cache_Controller.NP.L1_GETX |      318757     12.51%     12.51% |      318666     12.50%     25.01% |      318062     12.48%     37.49% |      318428     12.50%     49.99% |      318384     12.49%     62.48% |      318944     12.52%     75.00% |      318510     12.50%     87.50% |      318668     12.50%    100.00% (Unspecified)
system.caches.L2Cache_Controller.NP.L1_GETX::total      2548419                       (Unspecified)
system.caches.L2Cache_Controller.NP.L1_PUTX_old |           1    100.00%    100.00% |           0      0.00%    100.00% |           0      0.00%    100.00% |           0      0.00%    100.00% |           0      0.00%    100.00% |           0      0.00%    100.00% |           0      0.00%    100.00% |           0      0.00%    100.00% (Unspecified)
system.caches.L2Cache_Controller.NP.L1_PUTX_old::total            1                       (Unspecified)
system.caches.L2Cache_Controller.SS.L1_GET_INSTR |        4332     11.78%     11.78% |        5644     15.34%     27.12% |        3786     10.29%     37.42% |        2745      7.46%     44.88% |        4048     11.01%     55.88% |        5681     15.45%     71.33% |        5516     15.00%     86.32% |        5030     13.68%    100.00% (Unspecified)
system.caches.L2Cache_Controller.SS.L1_GET_INSTR::total        36782                       (Unspecified)
system.caches.L2Cache_Controller.SS.L1_GETS |        6934     25.44%     25.44% |        3969     14.56%     40.00% |        3985     14.62%     54.62% |        2666      9.78%     64.40% |        2286      8.39%     72.78% |        2026      7.43%     80.22% |        1907      7.00%     87.21% |        3486     12.79%    100.00% (Unspecified)
system.caches.L2Cache_Controller.SS.L1_GETS::total        27259                       (Unspecified)
system.caches.L2Cache_Controller.SS.L1_GETX |         132     75.00%     75.00% |           0      0.00%     75.00% |           0      0.00%     75.00% |           0      0.00%     75.00% |           0      0.00%     75.00% |           0      0.00%     75.00% |          44     25.00%    100.00% |           0      0.00%    100.00% (Unspecified)
system.caches.L2Cache_Controller.SS.L1_GETX::total          176                       (Unspecified)
system.caches.L2Cache_Controller.SS.L1_UPGRADE |          29      7.80%      7.80% |          80     21.51%     29.30% |           0      0.00%     29.30% |           0      0.00%     29.30% |           0      0.00%     29.30% |           0      0.00%     29.30% |         263     70.70%    100.00% |           0      0.00%    100.00% (Unspecified)
system.caches.L2Cache_Controller.SS.L1_UPGRADE::total          372                       (Unspecified)
system.caches.L2Cache_Controller.SS.L2_Replacement |           1    100.00%    100.00% |           0      0.00%    100.00% |           0      0.00%    100.00% |           0      0.00%    100.00% |           0      0.00%    100.00% |           0      0.00%    100.00% |           0      0.00%    100.00% |           0      0.00%    100.00% (Unspecified)
system.caches.L2Cache_Controller.SS.L2_Replacement::total            1                       (Unspecified)
system.caches.L2Cache_Controller.SS.L2_Replacement_clean |         791     13.85%     13.85% |         814     14.25%     28.10% |         681     11.92%     40.02% |         623     10.91%     50.93% |         758     13.27%     64.20% |         716     12.54%     76.73% |         611     10.70%     87.43% |         718     12.57%    100.00% (Unspecified)
system.caches.L2Cache_Controller.SS.L2_Replacement_clean::total         5712                       (Unspecified)
system.caches.L2Cache_Controller.M.L1_GET_INSTR |           1      8.33%      8.33% |           2     16.67%     25.00% |           1      8.33%     33.33% |           0      0.00%     33.33% |           0      0.00%     33.33% |           2     16.67%     50.00% |           3     25.00%     75.00% |           3     25.00%    100.00% (Unspecified)
system.caches.L2Cache_Controller.M.L1_GET_INSTR::total           12                       (Unspecified)
system.caches.L2Cache_Controller.M.L1_GETS |        1608     13.02%     13.02% |        2087     16.90%     29.92% |        1306     10.58%     40.50% |        1366     11.06%     51.56% |        1478     11.97%     63.53% |        1473     11.93%     75.46% |        1454     11.78%     87.24% |        1576     12.76%    100.00% (Unspecified)
system.caches.L2Cache_Controller.M.L1_GETS::total        12348                       (Unspecified)
system.caches.L2Cache_Controller.M.L1_GETX |        1094     15.90%     15.90% |        1077     15.65%     31.55% |         147      2.14%     33.68% |         595      8.65%     42.33% |         503      7.31%     49.64% |        1527     22.19%     71.83% |         861     12.51%     84.34% |        1078     15.66%    100.00% (Unspecified)
system.caches.L2Cache_Controller.M.L1_GETX::total         6882                       (Unspecified)
system.caches.L2Cache_Controller.M.L2_Replacement |      320743     12.50%     12.50% |      320641     12.50%     25.00% |      320712     12.50%     37.50% |      320755     12.50%     50.00% |      320617     12.50%     62.50% |      320732     12.50%     75.00% |      320648     12.50%     87.50% |      320749     12.50%    100.00% (Unspecified)
system.caches.L2Cache_Controller.M.L2_Replacement::total      2565597                       (Unspecified)
system.caches.L2Cache_Controller.M.L2_Replacement_clean |      292731     12.50%     12.50% |      292707     12.50%     25.00% |      292808     12.50%     37.50% |      292776     12.50%     50.00% |      292791     12.50%     62.50% |      292689     12.50%     75.00% |      292802     12.50%     87.50% |      292692     12.50%    100.00% (Unspecified)
system.caches.L2Cache_Controller.M.L2_Replacement_clean::total      2341996                       (Unspecified)
system.caches.L2Cache_Controller.MT.L1_GETS |         179     27.75%     27.75% |         105     16.28%     44.03% |          11      1.71%     45.74% |           7      1.09%     46.82% |          10      1.55%     48.37% |           4      0.62%     48.99% |         309     47.91%     96.90% |          20      3.10%    100.00% (Unspecified)
system.caches.L2Cache_Controller.MT.L1_GETS::total          645                       (Unspecified)
system.caches.L2Cache_Controller.MT.L1_PUTX |      616170     12.51%     12.51% |      616519     12.51%     25.02% |      614974     12.48%     37.50% |      615486     12.49%     49.99% |      615397     12.49%     62.48% |      616436     12.51%     75.00% |      615771     12.50%     87.49% |      616117     12.51%    100.00% (Unspecified)
system.caches.L2Cache_Controller.MT.L1_PUTX::total      4926870                       (Unspecified)
system.caches.L2Cache_Controller.MT.L2_Replacement |         404     17.10%     17.10% |         277     11.72%     28.82% |          57      2.41%     31.23% |         250     10.58%     41.81% |         168      7.11%     48.92% |         514     21.75%     70.67% |         282     11.93%     82.61% |         411     17.39%    100.00% (Unspecified)
system.caches.L2Cache_Controller.MT.L2_Replacement::total         2363                       (Unspecified)
system.caches.L2Cache_Controller.MT.L2_Replacement_clean |        4272     13.35%     13.35% |        4414     13.79%     27.14% |        3379     10.56%     37.70% |        3762     11.76%     49.46% |        3919     12.25%     61.71% |        4251     13.28%     74.99% |        3958     12.37%     87.36% |        4044     12.64%    100.00% (Unspecified)
system.caches.L2Cache_Controller.MT.L2_Replacement_clean::total        31999                       (Unspecified)
system.caches.L2Cache_Controller.M_I.L1_GET_INSTR |           0      0.00%      0.00% |           0      0.00%      0.00% |           0      0.00%      0.00% |           0      0.00%      0.00% |           5    100.00%    100.00% |           0      0.00%    100.00% |           0      0.00%    100.00% |           0      0.00%    100.00% (Unspecified)
system.caches.L2Cache_Controller.M_I.L1_GET_INSTR::total            5                       (Unspecified)
system.caches.L2Cache_Controller.M_I.L1_GETS |           0      0.00%      0.00% |           1     11.11%     11.11% |           3     33.33%     44.44% |           2     22.22%     66.67% |           1     11.11%     77.78% |           0      0.00%     77.78% |           2     22.22%    100.00% |           0      0.00%    100.00% (Unspecified)
system.caches.L2Cache_Controller.M_I.L1_GETS::total            9                       (Unspecified)
system.caches.L2Cache_Controller.M_I.L1_GETX |           3     18.75%     18.75% |           5     31.25%     50.00% |           0      0.00%     50.00% |           4     25.00%     75.00% |           0      0.00%     75.00% |           4     25.00%    100.00% |           0      0.00%    100.00% |           0      0.00%    100.00% (Unspecified)
system.caches.L2Cache_Controller.M_I.L1_GETX::total           16                       (Unspecified)
system.caches.L2Cache_Controller.M_I.L1_PUTX_old |           1    100.00%    100.00% |           0      0.00%    100.00% |           0      0.00%    100.00% |           0      0.00%    100.00% |           0      0.00%    100.00% |           0      0.00%    100.00% |           0      0.00%    100.00% |           0      0.00%    100.00% (Unspecified)
system.caches.L2Cache_Controller.M_I.L1_PUTX_old::total            1                       (Unspecified)
system.caches.L2Cache_Controller.M_I.Mem_Ack |      618942     12.51%     12.51% |      618853     12.51%     25.02% |      617637     12.48%     37.50% |      618166     12.49%     50.00% |      618253     12.50%     62.49% |      618902     12.51%     75.00% |      618301     12.50%     87.50% |      618614     12.50%    100.00% (Unspecified)
system.caches.L2Cache_Controller.M_I.Mem_Ack::total      4947668                       (Unspecified)
system.caches.L2Cache_Controller.MT_I.WB_Data |         403     17.24%     17.24% |         272     11.63%     28.87% |          56      2.40%     31.27% |         245     10.48%     41.75% |         160      6.84%     48.59% |         511     21.86%     70.44% |         281     12.02%     82.46% |         410     17.54%    100.00% (Unspecified)
system.caches.L2Cache_Controller.MT_I.WB_Data::total         2338                       (Unspecified)
system.caches.L2Cache_Controller.MT_I.Ack_all |           1      4.00%      4.00% |           5     20.00%     24.00% |           1      4.00%     28.00% |           5     20.00%     48.00% |           8     32.00%     80.00% |           3     12.00%     92.00% |           1      4.00%     96.00% |           1      4.00%    100.00% (Unspecified)
system.caches.L2Cache_Controller.MT_I.Ack_all::total           25                       (Unspecified)
system.caches.L2Cache_Controller.MCT_I.L1_PUTX_old |           1    100.00%    100.00% |           0      0.00%    100.00% |           0      0.00%    100.00% |           0      0.00%    100.00% |           0      0.00%    100.00% |           0      0.00%    100.00% |           0      0.00%    100.00% |           0      0.00%    100.00% (Unspecified)
system.caches.L2Cache_Controller.MCT_I.L1_PUTX_old::total            1                       (Unspecified)
system.caches.L2Cache_Controller.MCT_I.WB_Data |        2313     13.12%     13.12% |        2245     12.74%     25.86% |        1763     10.00%     35.86% |        2124     12.05%     47.91% |        2086     11.83%     59.75% |        2525     14.33%     74.07% |        2200     12.48%     86.55% |        2370     13.45%    100.00% (Unspecified)
system.caches.L2Cache_Controller.MCT_I.WB_Data::total        17626                       (Unspecified)
system.caches.L2Cache_Controller.MCT_I.WB_Data_clean |           1    100.00%    100.00% |           0      0.00%    100.00% |           0      0.00%    100.00% |           0      0.00%    100.00% |           0      0.00%    100.00% |           0      0.00%    100.00% |           0      0.00%    100.00% |           0      0.00%    100.00% (Unspecified)
system.caches.L2Cache_Controller.MCT_I.WB_Data_clean::total            1                       (Unspecified)
system.caches.L2Cache_Controller.MCT_I.Ack_all |        1958     13.62%     13.62% |        2169     15.09%     28.72% |        1616     11.24%     39.96% |        1638     11.40%     51.36% |        1833     12.75%     64.11% |        1726     12.01%     76.12% |        1758     12.23%     88.35% |        1674     11.65%    100.00% (Unspecified)
system.caches.L2Cache_Controller.MCT_I.Ack_all::total        14372                       (Unspecified)
system.caches.L2Cache_Controller.I_I.Ack |        4486     13.66%     13.66% |        4427     13.48%     27.13% |        3859     11.75%     38.88% |        3510     10.68%     49.56% |        4586     13.96%     63.52% |        4364     13.28%     76.81% |        3810     11.60%     88.41% |        3809     11.59%    100.00% (Unspecified)
system.caches.L2Cache_Controller.I_I.Ack::total        32851                       (Unspecified)
system.caches.L2Cache_Controller.I_I.Ack_all |         791     13.85%     13.85% |         814     14.25%     28.10% |         681     11.92%     40.02% |         623     10.91%     50.93% |         758     13.27%     64.20% |         716     12.54%     76.73% |         611     10.70%     87.43% |         718     12.57%    100.00% (Unspecified)
system.caches.L2Cache_Controller.I_I.Ack_all::total         5712                       (Unspecified)
system.caches.L2Cache_Controller.S_I.Ack |           7    100.00%    100.00% |           0      0.00%    100.00% |           0      0.00%    100.00% |           0      0.00%    100.00% |           0      0.00%    100.00% |           0      0.00%    100.00% |           0      0.00%    100.00% |           0      0.00%    100.00% (Unspecified)
system.caches.L2Cache_Controller.S_I.Ack::total            7                       (Unspecified)
system.caches.L2Cache_Controller.S_I.Ack_all |           1    100.00%    100.00% |           0      0.00%    100.00% |           0      0.00%    100.00% |           0      0.00%    100.00% |           0      0.00%    100.00% |           0      0.00%    100.00% |           0      0.00%    100.00% |           0      0.00%    100.00% (Unspecified)
system.caches.L2Cache_Controller.S_I.Ack_all::total            1                       (Unspecified)
system.caches.L2Cache_Controller.ISS.L1_GETS |          11     18.97%     18.97% |           9     15.52%     34.48% |           8     13.79%     48.28% |           8     13.79%     62.07% |           2      3.45%     65.52% |          10     17.24%     82.76% |           3      5.17%     87.93% |           7     12.07%    100.00% (Unspecified)
system.caches.L2Cache_Controller.ISS.L1_GETS::total           58                       (Unspecified)
system.caches.L2Cache_Controller.ISS.Mem_Data |      299412     12.51%     12.51% |      299396     12.51%     25.02% |      298902     12.49%     37.50% |      299120     12.50%     50.00% |      299123     12.50%     62.50% |      299253     12.50%     75.00% |      299186     12.50%     87.50% |      299248     12.50%    100.00% (Unspecified)
system.caches.L2Cache_Controller.ISS.Mem_Data::total      2393640                       (Unspecified)
system.caches.L2Cache_Controller.IS.L1_GET_INSTR |         556     11.42%     11.42% |         650     13.35%     24.77% |         542     11.13%     35.90% |         693     14.23%     50.13% |         740     15.20%     65.33% |         655     13.45%     78.78% |         514     10.56%     89.34% |         519     10.66%    100.00% (Unspecified)
system.caches.L2Cache_Controller.IS.L1_GET_INSTR::total         4869                       (Unspecified)
system.caches.L2Cache_Controller.IS.L1_GETS |          26     31.33%     31.33% |          16     19.28%     50.60% |           8      9.64%     60.24% |           7      8.43%     68.67% |           1      1.20%     69.88% |          15     18.07%     87.95% |           1      1.20%     89.16% |           9     10.84%    100.00% (Unspecified)
system.caches.L2Cache_Controller.IS.L1_GETS::total           83                       (Unspecified)
system.caches.L2Cache_Controller.IS.Mem_Data |         773     13.81%     13.81% |         788     14.08%     27.89% |         671     11.99%     39.88% |         615     10.99%     50.87% |         744     13.29%     64.16% |         705     12.60%     76.76% |         604     10.79%     87.55% |         697     12.45%    100.00% (Unspecified)
system.caches.L2Cache_Controller.IS.Mem_Data::total         5597                       (Unspecified)
system.caches.L2Cache_Controller.IM.Mem_Data |      318754     12.51%     12.51% |      318666     12.50%     25.01% |      318061     12.48%     37.49% |      318427     12.50%     49.99% |      318384     12.49%     62.48% |      318943     12.52%     75.00% |      318508     12.50%     87.50% |      318668     12.50%    100.00% (Unspecified)
system.caches.L2Cache_Controller.IM.Mem_Data::total      2548411                       (Unspecified)
system.caches.L2Cache_Controller.SS_MB.L1_GETS |           0      0.00%      0.00% |           0      0.00%      0.00% |           0      0.00%      0.00% |           0      0.00%      0.00% |           0      0.00%      0.00% |           0      0.00%      0.00% |         363    100.00%    100.00% |           0      0.00%    100.00% (Unspecified)
system.caches.L2Cache_Controller.SS_MB.L1_GETS::total          363                       (Unspecified)
system.caches.L2Cache_Controller.SS_MB.Exclusive_Unblock |         161     29.38%     29.38% |          80     14.60%     43.98% |           0      0.00%     43.98% |           0      0.00%     43.98% |           0      0.00%     43.98% |           0      0.00%     43.98% |         307     56.02%    100.00% |           0      0.00%    100.00% (Unspecified)
system.caches.L2Cache_Controller.SS_MB.Exclusive_Unblock::total          548                       (Unspecified)
system.caches.L2Cache_Controller.MT_MB.L1_GETS |           1     10.00%     10.00% |           0      0.00%     10.00% |           0      0.00%     10.00% |           0      0.00%     10.00% |           5     50.00%     60.00% |           0      0.00%     60.00% |           0      0.00%     60.00% |           4     40.00%    100.00% (Unspecified)
system.caches.L2Cache_Controller.MT_MB.L1_GETS::total           10                       (Unspecified)
system.caches.L2Cache_Controller.MT_MB.Exclusive_Unblock |      620868     12.51%     12.51% |      621226     12.52%     25.04% |      618416     12.46%     37.50% |      619508     12.49%     49.99% |      619488     12.49%     62.47% |      621196     12.52%     74.99% |      620009     12.50%     87.49% |      620570     12.51%    100.00% (Unspecified)
system.caches.L2Cache_Controller.MT_MB.Exclusive_Unblock::total      4961281                       (Unspecified)
system.caches.L2Cache_Controller.MT_IIB.L1_GETS |           9      5.33%      5.33% |           9      5.33%     10.65% |           0      0.00%     10.65% |           0      0.00%     10.65% |           3      1.78%     12.43% |           0      0.00%     12.43% |         144     85.21%     97.63% |           4      2.37%    100.00% (Unspecified)
system.caches.L2Cache_Controller.MT_IIB.L1_GETS::total          169                       (Unspecified)
system.caches.L2Cache_Controller.MT_IIB.WB_Data |         162     29.51%     29.51% |          80     14.57%     44.08% |           0      0.00%     44.08% |           0      0.00%     44.08% |           0      0.00%     44.08% |           0      0.00%     44.08% |         307     55.92%    100.00% |           0      0.00%    100.00% (Unspecified)
system.caches.L2Cache_Controller.MT_IIB.WB_Data::total          549                       (Unspecified)
system.caches.L2Cache_Controller.MT_IIB.WB_Data_clean |          17     17.71%     17.71% |          25     26.04%     43.75% |          11     11.46%     55.21% |           7      7.29%     62.50% |          10     10.42%     72.92% |           4      4.17%     77.08% |           2      2.08%     79.17% |          20     20.83%    100.00% (Unspecified)
system.caches.L2Cache_Controller.MT_IIB.WB_Data_clean::total           96                       (Unspecified)
system.caches.L2Cache_Controller.MT_SB.L1_GETS |           1     20.00%     20.00% |           4     80.00%    100.00% |           0      0.00%    100.00% |           0      0.00%    100.00% |           0      0.00%    100.00% |           0      0.00%    100.00% |           0      0.00%    100.00% |           0      0.00%    100.00% (Unspecified)
system.caches.L2Cache_Controller.MT_SB.L1_GETS::total            5                       (Unspecified)
system.caches.L2Cache_Controller.MT_SB.L1_UPGRADE |           0      0.00%      0.00% |           0      0.00%      0.00% |           0      0.00%      0.00% |           0      0.00%      0.00% |           0      0.00%      0.00% |           0      0.00%      0.00% |          85    100.00%    100.00% |           0      0.00%    100.00% (Unspecified)
system.caches.L2Cache_Controller.MT_SB.L1_UPGRADE::total           85                       (Unspecified)
system.caches.L2Cache_Controller.MT_SB.Unblock |         179     27.75%     27.75% |         105     16.28%     44.03% |          11      1.71%     45.74% |           7      1.09%     46.82% |          10      1.55%     48.37% |           4      0.62%     48.99% |         309     47.91%     96.90% |          20      3.10%    100.00% (Unspecified)
system.caches.L2Cache_Controller.MT_SB.Unblock::total          645                       (Unspecified)
system.caches.RequestType.LD.latency_hist_seqr::bucket_size         1024                       (Unspecified)
system.caches.RequestType.LD.latency_hist_seqr::max_bucket        10239                       (Unspecified)
system.caches.RequestType.LD.latency_hist_seqr::samples      5655431                       (Unspecified)
system.caches.RequestType.LD.latency_hist_seqr::mean   462.735558                       (Unspecified)
system.caches.RequestType.LD.latency_hist_seqr::gmean    18.734566                       (Unspecified)
system.caches.RequestType.LD.latency_hist_seqr::stdev   656.025816                       (Unspecified)
system.caches.RequestType.LD.latency_hist_seqr |     4583259     81.04%     81.04% |      900468     15.92%     96.96% |      150894      2.67%     99.63% |       20230      0.36%     99.99% |         576      0.01%    100.00% |           4      0.00%    100.00% |           0      0.00%    100.00% |           0      0.00%    100.00% |           0      0.00%    100.00% |           0      0.00%    100.00% (Unspecified)
system.caches.RequestType.LD.latency_hist_seqr::total      5655431                       (Unspecified)
system.caches.RequestType.LD.hit_latency_hist_seqr::bucket_size            1                       (Unspecified)
system.caches.RequestType.LD.hit_latency_hist_seqr::max_bucket            9                       (Unspecified)
system.caches.RequestType.LD.hit_latency_hist_seqr::samples      3221340                       (Unspecified)
system.caches.RequestType.LD.hit_latency_hist_seqr::mean     1.000074                       (Unspecified)
system.caches.RequestType.LD.hit_latency_hist_seqr::gmean     1.000051                       (Unspecified)
system.caches.RequestType.LD.hit_latency_hist_seqr::stdev     0.008595                       (Unspecified)
system.caches.RequestType.LD.hit_latency_hist_seqr |           0      0.00%      0.00% |     3221102     99.99%     99.99% |         238      0.01%    100.00% |           0      0.00%    100.00% |           0      0.00%    100.00% |           0      0.00%    100.00% |           0      0.00%    100.00% |           0      0.00%    100.00% |           0      0.00%    100.00% |           0      0.00%    100.00% (Unspecified)
system.caches.RequestType.LD.hit_latency_hist_seqr::total      3221340                       (Unspecified)
system.caches.RequestType.LD.miss_latency_hist_seqr::bucket_size         1024                       (Unspecified)
system.caches.RequestType.LD.miss_latency_hist_seqr::max_bucket        10239                       (Unspecified)
system.caches.RequestType.LD.miss_latency_hist_seqr::samples      2434091                       (Unspecified)
system.caches.RequestType.LD.miss_latency_hist_seqr::mean  1073.808432                       (Unspecified)
system.caches.RequestType.LD.miss_latency_hist_seqr::gmean   905.449460                       (Unspecified)
system.caches.RequestType.LD.miss_latency_hist_seqr::stdev   586.829232                       (Unspecified)
system.caches.RequestType.LD.miss_latency_hist_seqr |     1361919     55.95%     55.95% |      900468     36.99%     92.95% |      150894      6.20%     99.15% |       20230      0.83%     99.98% |         576      0.02%    100.00% |           4      0.00%    100.00% |           0      0.00%    100.00% |           0      0.00%    100.00% |           0      0.00%    100.00% |           0      0.00%    100.00% (Unspecified)
system.caches.RequestType.LD.miss_latency_hist_seqr::total      2434091                       (Unspecified)
system.caches.RequestType.ST.latency_hist_seqr::bucket_size         1024                       (Unspecified)
system.caches.RequestType.ST.latency_hist_seqr::max_bucket        10239                       (Unspecified)
system.caches.RequestType.ST.latency_hist_seqr::samples     20452792                       (Unspecified)
system.caches.RequestType.ST.latency_hist_seqr::mean   153.490552                       (Unspecified)
system.caches.RequestType.ST.latency_hist_seqr::gmean     2.391434                       (Unspecified)
system.caches.RequestType.ST.latency_hist_seqr::stdev   457.125015                       (Unspecified)
system.caches.RequestType.ST.latency_hist_seqr |    19062532     93.20%     93.20% |     1161133      5.68%     98.88% |      192186      0.94%     99.82% |       36601      0.18%    100.00% |         337      0.00%    100.00% |           3      0.00%    100.00% |           0      0.00%    100.00% |           0      0.00%    100.00% |           0      0.00%    100.00% |           0      0.00%    100.00% (Unspecified)
system.caches.RequestType.ST.latency_hist_seqr::total     20452792                       (Unspecified)
system.caches.RequestType.ST.hit_latency_hist_seqr::bucket_size          256                       (Unspecified)
system.caches.RequestType.ST.hit_latency_hist_seqr::max_bucket         2559                       (Unspecified)
system.caches.RequestType.ST.hit_latency_hist_seqr::samples     17902792                       (Unspecified)
system.caches.RequestType.ST.hit_latency_hist_seqr::mean     1.005627                       (Unspecified)
system.caches.RequestType.ST.hit_latency_hist_seqr::gmean     1.000169                       (Unspecified)
system.caches.RequestType.ST.hit_latency_hist_seqr::stdev     2.527628                       (Unspecified)
system.caches.RequestType.ST.hit_latency_hist_seqr |    17902692    100.00%    100.00% |          13      0.00%    100.00% |          28      0.00%    100.00% |          19      0.00%    100.00% |          17      0.00%    100.00% |          12      0.00%    100.00% |           5      0.00%    100.00% |           3      0.00%    100.00% |           2      0.00%    100.00% |           1      0.00%    100.00% (Unspecified)
system.caches.RequestType.ST.hit_latency_hist_seqr::total     17902792                       (Unspecified)
system.caches.RequestType.ST.miss_latency_hist_seqr::bucket_size         1024                       (Unspecified)
system.caches.RequestType.ST.miss_latency_hist_seqr::max_bucket        10239                       (Unspecified)
system.caches.RequestType.ST.miss_latency_hist_seqr::samples      2550000                       (Unspecified)
system.caches.RequestType.ST.miss_latency_hist_seqr::mean  1224.041885                       (Unspecified)
system.caches.RequestType.ST.miss_latency_hist_seqr::gmean  1087.908422                       (Unspecified)
system.caches.RequestType.ST.miss_latency_hist_seqr::stdev   605.528251                       (Unspecified)
system.caches.RequestType.ST.miss_latency_hist_seqr |     1159780     45.48%     45.48% |     1161096     45.53%     91.01% |      192183      7.54%     98.55% |       36601      1.44%     99.99% |         337      0.01%    100.00% |           3      0.00%    100.00% |           0      0.00%    100.00% |           0      0.00%    100.00% |           0      0.00%    100.00% |           0      0.00%    100.00% (Unspecified)
system.caches.RequestType.ST.miss_latency_hist_seqr::total      2550000                       (Unspecified)
system.caches.RequestType.IFETCH.latency_hist_seqr::bucket_size          512                       (Unspecified)
system.caches.RequestType.IFETCH.latency_hist_seqr::max_bucket         5119                       (Unspecified)
system.caches.RequestType.IFETCH.latency_hist_seqr::samples      6713591                       (Unspecified)
system.caches.RequestType.IFETCH.latency_hist_seqr::mean     1.499852                       (Unspecified)
system.caches.RequestType.IFETCH.latency_hist_seqr::gmean     1.022997                       (Unspecified)
system.caches.RequestType.IFETCH.latency_hist_seqr::stdev    14.322944                       (Unspecified)
system.caches.RequestType.IFETCH.latency_hist_seqr |     6713227     99.99%     99.99% |         125      0.00%    100.00% |         134      0.00%    100.00% |          75      0.00%    100.00% |          10      0.00%    100.00% |          12      0.00%    100.00% |           2      0.00%    100.00% |           6      0.00%    100.00% |           0      0.00%    100.00% |           0      0.00%    100.00% (Unspecified)
system.caches.RequestType.IFETCH.latency_hist_seqr::total      6713591                       (Unspecified)
system.caches.RequestType.IFETCH.hit_latency_hist_seqr::bucket_size            1                       (Unspecified)
system.caches.RequestType.IFETCH.hit_latency_hist_seqr::max_bucket            9                       (Unspecified)
system.caches.RequestType.IFETCH.hit_latency_hist_seqr::samples      6666389                       (Unspecified)
system.caches.RequestType.IFETCH.hit_latency_hist_seqr::mean     1.000001                       (Unspecified)
system.caches.RequestType.IFETCH.hit_latency_hist_seqr::gmean     1.000000                       (Unspecified)
system.caches.RequestType.IFETCH.hit_latency_hist_seqr::stdev     0.000775                       (Unspecified)
system.caches.RequestType.IFETCH.hit_latency_hist_seqr |           0      0.00%      0.00% |     6666385    100.00%    100.00% |           4      0.00%    100.00% |           0      0.00%    100.00% |           0      0.00%    100.00% |           0      0.00%    100.00% |           0      0.00%    100.00% |           0      0.00%    100.00% |           0      0.00%    100.00% |           0      0.00%    100.00% (Unspecified)
system.caches.RequestType.IFETCH.hit_latency_hist_seqr::total      6666389                       (Unspecified)
system.caches.RequestType.IFETCH.miss_latency_hist_seqr::bucket_size          512                       (Unspecified)
system.caches.RequestType.IFETCH.miss_latency_hist_seqr::max_bucket         5119                       (Unspecified)
system.caches.RequestType.IFETCH.miss_latency_hist_seqr::samples        47202                       (Unspecified)
system.caches.RequestType.IFETCH.miss_latency_hist_seqr::mean    72.094339                       (Unspecified)
system.caches.RequestType.IFETCH.miss_latency_hist_seqr::gmean    25.374794                       (Unspecified)
system.caches.RequestType.IFETCH.miss_latency_hist_seqr::stdev   155.434475                       (Unspecified)
system.caches.RequestType.IFETCH.miss_latency_hist_seqr |       46838     99.23%     99.23% |         125      0.26%     99.49% |         134      0.28%     99.78% |          75      0.16%     99.94% |          10      0.02%     99.96% |          12      0.03%     99.98% |           2      0.00%     99.99% |           6      0.01%    100.00% |           0      0.00%    100.00% |           0      0.00%    100.00% (Unspecified)
system.caches.RequestType.IFETCH.miss_latency_hist_seqr::total        47202                       (Unspecified)
system.caches.RequestType.RMW_Read.latency_hist_seqr::bucket_size          512                       (Unspecified)
system.caches.RequestType.RMW_Read.latency_hist_seqr::max_bucket         5119                       (Unspecified)
system.caches.RequestType.RMW_Read.latency_hist_seqr::samples        23381                       (Unspecified)
system.caches.RequestType.RMW_Read.latency_hist_seqr::mean    76.424490                       (Unspecified)
system.caches.RequestType.RMW_Read.latency_hist_seqr::gmean     2.965656                       (Unspecified)
system.caches.RequestType.RMW_Read.latency_hist_seqr::stdev   277.331621                       (Unspecified)
system.caches.RequestType.RMW_Read.latency_hist_seqr |       21715     92.87%     92.87% |        1133      4.85%     97.72% |         372      1.59%     99.31% |          91      0.39%     99.70% |          47      0.20%     99.90% |          16      0.07%     99.97% |           6      0.03%    100.00% |           1      0.00%    100.00% |           0      0.00%    100.00% |           0      0.00%    100.00% (Unspecified)
system.caches.RequestType.RMW_Read.latency_hist_seqr::total        23381                       (Unspecified)
system.caches.RequestType.RMW_Read.hit_latency_hist_seqr::bucket_size          256                       (Unspecified)
system.caches.RequestType.RMW_Read.hit_latency_hist_seqr::max_bucket         2559                       (Unspecified)
system.caches.RequestType.RMW_Read.hit_latency_hist_seqr::samples        18497                       (Unspecified)
system.caches.RequestType.RMW_Read.hit_latency_hist_seqr::mean     9.924096                       (Unspecified)
system.caches.RequestType.RMW_Read.hit_latency_hist_seqr::gmean     1.308246                       (Unspecified)
system.caches.RequestType.RMW_Read.hit_latency_hist_seqr::stdev    92.147294                       (Unspecified)
system.caches.RequestType.RMW_Read.hit_latency_hist_seqr |       18317     99.03%     99.03% |          19      0.10%     99.13% |          79      0.43%     99.56% |          38      0.21%     99.76% |          20      0.11%     99.87% |          11      0.06%     99.93% |           6      0.03%     99.96% |           4      0.02%     99.98% |           3      0.02%    100.00% |           0      0.00%    100.00% (Unspecified)
system.caches.RequestType.RMW_Read.hit_latency_hist_seqr::total        18497                       (Unspecified)
system.caches.RequestType.RMW_Read.miss_latency_hist_seqr::bucket_size          512                       (Unspecified)
system.caches.RequestType.RMW_Read.miss_latency_hist_seqr::max_bucket         5119                       (Unspecified)
system.caches.RequestType.RMW_Read.miss_latency_hist_seqr::samples         4884                       (Unspecified)
system.caches.RequestType.RMW_Read.miss_latency_hist_seqr::mean   328.279075                       (Unspecified)
system.caches.RequestType.RMW_Read.miss_latency_hist_seqr::gmean    65.801114                       (Unspecified)
system.caches.RequestType.RMW_Read.miss_latency_hist_seqr::stdev   505.868705                       (Unspecified)
system.caches.RequestType.RMW_Read.miss_latency_hist_seqr |        3379     69.19%     69.19% |        1016     20.80%     89.99% |         341      6.98%     96.97% |          81      1.66%     98.63% |          44      0.90%     99.53% |          16      0.33%     99.86% |           6      0.12%     99.98% |           1      0.02%    100.00% |           0      0.00%    100.00% |           0      0.00%    100.00% (Unspecified)
system.caches.RequestType.RMW_Read.miss_latency_hist_seqr::total         4884                       (Unspecified)
system.caches.RequestType.Locked_RMW_Read.latency_hist_seqr::bucket_size          512                       (Unspecified)
system.caches.RequestType.Locked_RMW_Read.latency_hist_seqr::max_bucket         5119                       (Unspecified)
system.caches.RequestType.Locked_RMW_Read.latency_hist_seqr::samples         4636                       (Unspecified)
system.caches.RequestType.Locked_RMW_Read.latency_hist_seqr::mean    71.070104                       (Unspecified)
system.caches.RequestType.Locked_RMW_Read.latency_hist_seqr::gmean     2.395639                       (Unspecified)
system.caches.RequestType.Locked_RMW_Read.latency_hist_seqr::stdev   268.749223                       (Unspecified)
[...]
system.o3Cpu7.iew.squashCycles                   5398                       # Number of cycles IEW is squashing (Cycle)
system.o3Cpu7.iew.blockCycles                 3777771                       # Number of cycles IEW is blocking (Cycle)
system.o3Cpu7.iew.unblockCycles             212398911                       # Number of cycles IEW is unblocking (Cycle)
system.o3Cpu7.iew.dispatchedInsts            11080445                       # Number of instructions dispatched to IQ (Count)
system.o3Cpu7.iew.dispSquashedInsts              1215                       # Number of squashed instructions skipped by dispatch (Count)
system.o3Cpu7.iew.dispLoadInsts               2301653                       # Number of dispatched load instructions (Count)
system.o3Cpu7.iew.dispStoreInsts              2531791                       # Number of dispatched store instructions (Count)
system.o3Cpu7.iew.dispNonSpecInsts               3243                       # Number of dispatched non-speculative instructions (Count)
system.o3Cpu7.iew.iqFullEvents                   3387                       # Number of times the IQ has become full, causing a stall (Count)
system.o3Cpu7.iew.lsqFullEvents             212347020                       # Number of times the LSQ has become full, causing a stall (Count)
system.o3Cpu7.iew.memOrderViolationEvents          718                       # Number of memory order violations (Count)
system.o3Cpu7.iew.predictedTakenIncorrect         3651                       # Number of branches that were predicted taken incorrectly (Count)
system.o3Cpu7.iew.predictedNotTakenIncorrect          978                       # Number of branches that were predicted not taken incorrectly (Count)
system.o3Cpu7.iew.branchMispredicts              4629                       # Number of branch mispredicts detected at execute (Count)
system.o3Cpu7.iew.instsToCommit              11039512                       # Cumulative count of insts sent to commit (Count)
system.o3Cpu7.iew.writebackCount             11039282                       # Cumulative count of insts written-back (Count)
system.o3Cpu7.iew.producerInst                5557340                       # Number of instructions producing a value (Count)
system.o3Cpu7.iew.consumerInst               10468171                       # Number of instructions consuming a value (Count)
system.o3Cpu7.iew.wbRate                     0.027762                       # Insts written-back per cycle ((Count/Cycle))
system.o3Cpu7.iew.wbFanout                   0.530880                       # Average fanout of values written-back ((Count/Count))
system.o3Cpu7.interrupts.clk_domain.clock         3200                       # Clock period in ticks (Tick)
system.o3Cpu7.lsq0.forwLoads                     6954                       # Number of loads that had data forwarded from stores (Count)
system.o3Cpu7.lsq0.squashedLoads                25011                       # Number of loads squashed (Count)
system.o3Cpu7.lsq0.ignoredResponses                 9                       # Number of memory responses ignored because the instruction is squashed (Count)
system.o3Cpu7.lsq0.memOrderViolation              718                       # Number of memory ordering violations (Count)
system.o3Cpu7.lsq0.squashedStores                4503                       # Number of stores squashed (Count)
system.o3Cpu7.lsq0.rescheduledLoads                60                       # Number of loads that were rescheduled (Count)
system.o3Cpu7.lsq0.blockedByCache               41657                       # Number of times an access to memory failed due to the cache being blocked (Count)
system.o3Cpu7.lsq0.loadToUse::samples         2276632                       # Distribution of cycle latency between the first time a load is issued and its completion (Unspecified)
system.o3Cpu7.lsq0.loadToUse::mean         758.015687                       # Distribution of cycle latency between the first time a load is issued and its completion (Unspecified)
system.o3Cpu7.lsq0.loadToUse::stdev        712.626939                       # Distribution of cycle latency between the first time a load is issued and its completion (Unspecified)
system.o3Cpu7.lsq0.loadToUse::0-9              624697     27.44%     27.44% # Distribution of cycle latency between the first time a load is issued and its completion (Unspecified)
system.o3Cpu7.lsq0.loadToUse::10-19              8726      0.38%     27.82% # Distribution of cycle latency between the first time a load is issued and its completion (Unspecified)
system.o3Cpu7.lsq0.loadToUse::20-29              7659      0.34%     28.16% # Distribution of cycle latency between the first time a load is issued and its completion (Unspecified)
system.o3Cpu7.lsq0.loadToUse::30-39              4742      0.21%     28.37% # Distribution of cycle latency between the first time a load is issued and its completion (Unspecified)
system.o3Cpu7.lsq0.loadToUse::40-49              9909      0.44%     28.80% # Distribution of cycle latency between the first time a load is issued and its completion (Unspecified)
system.o3Cpu7.lsq0.loadToUse::50-59              1601      0.07%     28.87% # Distribution of cycle latency between the first time a load is issued and its completion (Unspecified)
system.o3Cpu7.lsq0.loadToUse::60-69              4243      0.19%     29.06% # Distribution of cycle latency between the first time a load is issued and its completion (Unspecified)
system.o3Cpu7.lsq0.loadToUse::70-79              3921      0.17%     29.23% # Distribution of cycle latency between the first time a load is issued and its completion (Unspecified)
system.o3Cpu7.lsq0.loadToUse::80-89              3892      0.17%     29.40% # Distribution of cycle latency between the first time a load is issued and its completion (Unspecified)
system.o3Cpu7.lsq0.loadToUse::90-99              2921      0.13%     29.53% # Distribution of cycle latency between the first time a load is issued and its completion (Unspecified)
system.o3Cpu7.lsq0.loadToUse::100-109            2083      0.09%     29.62% # Distribution of cycle latency between the first time a load is issued and its completion (Unspecified)
system.o3Cpu7.lsq0.loadToUse::110-119            1990      0.09%     29.71% # Distribution of cycle latency between the first time a load is issued and its completion (Unspecified)
system.o3Cpu7.lsq0.loadToUse::120-129            1825      0.08%     29.79% # Distribution of cycle latency between the first time a load is issued and its completion (Unspecified)
system.o3Cpu7.lsq0.loadToUse::130-139            2786      0.12%     29.91% # Distribution of cycle latency between the first time a load is issued and its completion (Unspecified)
system.o3Cpu7.lsq0.loadToUse::140-149            2497      0.11%     30.02% # Distribution of cycle latency between the first time a load is issued and its completion (Unspecified)
system.o3Cpu7.lsq0.loadToUse::150-159            1868      0.08%     30.10% # Distribution of cycle latency between the first time a load is issued and its completion (Unspecified)
system.o3Cpu7.lsq0.loadToUse::160-169            1672      0.07%     30.18% # Distribution of cycle latency between the first time a load is issued and its completion (Unspecified)
system.o3Cpu7.lsq0.loadToUse::170-179            1859      0.08%     30.26% # Distribution of cycle latency between the first time a load is issued and its completion (Unspecified)
system.o3Cpu7.lsq0.loadToUse::180-189            2501      0.11%     30.37% # Distribution of cycle latency between the first time a load is issued and its completion (Unspecified)
system.o3Cpu7.lsq0.loadToUse::190-199            3037      0.13%     30.50% # Distribution of cycle latency between the first time a load is issued and its completion (Unspecified)
system.o3Cpu7.lsq0.loadToUse::200-209            2161      0.09%     30.60% # Distribution of cycle latency between the first time a load is issued and its completion (Unspecified)
system.o3Cpu7.lsq0.loadToUse::210-219            1806      0.08%     30.68% # Distribution of cycle latency between the first time a load is issued and its completion (Unspecified)
system.o3Cpu7.lsq0.loadToUse::220-229            2234      0.10%     30.77% # Distribution of cycle latency between the first time a load is issued and its completion (Unspecified)
system.o3Cpu7.lsq0.loadToUse::230-239            2902      0.13%     30.90% # Distribution of cycle latency between the first time a load is issued and its completion (Unspecified)
system.o3Cpu7.lsq0.loadToUse::240-249            3207      0.14%     31.04% # Distribution of cycle latency between the first time a load is issued and its completion (Unspecified)
system.o3Cpu7.lsq0.loadToUse::250-259            2741      0.12%     31.16% # Distribution of cycle latency between the first time a load is issued and its completion (Unspecified)
system.o3Cpu7.lsq0.loadToUse::260-269            1983      0.09%     31.25% # Distribution of cycle latency between the first time a load is issued and its completion (Unspecified)
system.o3Cpu7.lsq0.loadToUse::270-279            1987      0.09%     31.34% # Distribution of cycle latency between the first time a load is issued and its completion (Unspecified)
system.o3Cpu7.lsq0.loadToUse::280-289            2395      0.11%     31.44% # Distribution of cycle latency between the first time a load is issued and its completion (Unspecified)
system.o3Cpu7.lsq0.loadToUse::290-299            4552      0.20%     31.64% # Distribution of cycle latency between the first time a load is issued and its completion (Unspecified)
system.o3Cpu7.lsq0.loadToUse::overflows       1556235     68.36%    100.00% # Distribution of cycle latency between the first time a load is issued and its completion (Unspecified)
system.o3Cpu7.lsq0.loadToUse::min_value             2                       # Distribution of cycle latency between the first time a load is issued and its completion (Unspecified)
system.o3Cpu7.lsq0.loadToUse::max_value          6902                       # Distribution of cycle latency between the first time a load is issued and its completion (Unspecified)
system.o3Cpu7.lsq0.loadToUse::total           2276632                       # Distribution of cycle latency between the first time a load is issued and its completion (Unspecified)
system.o3Cpu7.mmu.dtb.rdAccesses              2291151                       # TLB accesses on read requests (Count)
system.o3Cpu7.mmu.dtb.wrAccesses              2532004                       # TLB accesses on write requests (Count)
system.o3Cpu7.mmu.dtb.rdMisses                   3837                       # TLB misses on read requests (Count)
system.o3Cpu7.mmu.dtb.wrMisses                   2359                       # TLB misses on write requests (Count)
system.o3Cpu7.mmu.dtb.walker.power_state.pwrStateResidencyTicks::UNDEFINED  80543136200                       # Cumulative time (in ticks) in various power states (Tick)
system.o3Cpu7.mmu.itb.rdAccesses                    0                       # TLB accesses on read requests (Count)
system.o3Cpu7.mmu.itb.wrAccesses               795100                       # TLB accesses on write requests (Count)
system.o3Cpu7.mmu.itb.rdMisses                      0                       # TLB misses on read requests (Count)
system.o3Cpu7.mmu.itb.wrMisses                    181                       # TLB misses on write requests (Count)
system.o3Cpu7.mmu.itb.walker.power_state.pwrStateResidencyTicks::UNDEFINED  80543136200                       # Cumulative time (in ticks) in various power states (Tick)
system.o3Cpu7.power_state.pwrStateResidencyTicks::OFF  80543136200                       # Cumulative time (in ticks) in various power states (Tick)
system.o3Cpu7.rename.squashCycles                5398                       # Number of cycles rename is squashing (Cycle)
system.o3Cpu7.rename.idleCycles                831703                       # Number of cycles rename is idle (Cycle)
system.o3Cpu7.rename.blockCycles            216301285                       # Number of cycles rename is blocking (Cycle)
system.o3Cpu7.rename.serializeStallCycles       668631                       # count of cycles rename stalled for serializing inst (Cycle)
system.o3Cpu7.rename.runCycles                1036296                       # Number of cycles rename is running (Cycle)
system.o3Cpu7.rename.unblockCycles          178389557                       # Number of cycles rename is unblocking (Cycle)
system.o3Cpu7.rename.renamedInsts            11099162                       # Number of instructions processed by rename (Count)
system.o3Cpu7.rename.ROBFullEvents              26765                       # Number of times rename has blocked due to ROB full (Count)
system.o3Cpu7.rename.IQFullEvents              823005                       # Number of times rename has blocked due to IQ full (Count)
system.o3Cpu7.rename.LQFullEvents               70200                       # Number of times rename has blocked due to LQ full (Count)
system.o3Cpu7.rename.SQFullEvents           178054191                       # Number of times rename has blocked due to SQ full (Count)
system.o3Cpu7.rename.renamedOperands         13975828                       # Number of destination operands rename has renamed (Count)
system.o3Cpu7.rename.lookups                 35519898                       # Number of register rename lookups that rename has made (Count)
system.o3Cpu7.rename.intLookups               8101962                       # Number of integer rename lookups (Count)
system.o3Cpu7.rename.fpLookups                9576737                       # Number of floating rename lookups (Count)
system.o3Cpu7.rename.committedMaps           13805571                       # Number of HB maps that are committed (Count)
system.o3Cpu7.rename.undoneMaps                170226                       # Number of HB maps that are undone due to squashing (Count)
system.o3Cpu7.rename.serializing                 3387                       # count of serializing insts renamed (Count)
system.o3Cpu7.rename.tempSerializing             3579                       # count of temporary serializing insts renamed (Count)
system.o3Cpu7.rename.skidInsts                4922347                       # count of insts added to the skid buffer (Count)
system.o3Cpu7.rob.reads                     407782415                       # The number of ROB reads (Count)
system.o3Cpu7.rob.writes                     22172219                       # The number of ROB writes (Count)
system.o3Cpu7.thread_0.numInsts               6635587                       # Number of Instructions committed (Count)
system.o3Cpu7.thread_0.numOps                10989952                       # Number of Ops committed (Count)
system.o3Cpu7.thread_0.numMemRefs                   0                       # Number of Memory References (Count)
system.pc.bad_addr.power_state.pwrStateResidencyTicks::UNDEFINED  80543136200                       # Cumulative time (in ticks) in various power states (Tick)
system.pc.com_1.power_state.pwrStateResidencyTicks::UNDEFINED  80543136200                       # Cumulative time (in ticks) in various power states (Tick)
system.pc.default_bus.power_state.pwrStateResidencyTicks::UNDEFINED  80543136200                       # Cumulative time (in ticks) in various power states (Tick)
system.pc.empty_isa.power_state.pwrStateResidencyTicks::UNDEFINED  80543136200                       # Cumulative time (in ticks) in various power states (Tick)
system.pc.fake_com_2.power_state.pwrStateResidencyTicks::UNDEFINED  80543136200                       # Cumulative time (in ticks) in various power states (Tick)
system.pc.fake_com_3.power_state.pwrStateResidencyTicks::UNDEFINED  80543136200                       # Cumulative time (in ticks) in various power states (Tick)
system.pc.fake_com_4.power_state.pwrStateResidencyTicks::UNDEFINED  80543136200                       # Cumulative time (in ticks) in various power states (Tick)
system.pc.fake_floppy.power_state.pwrStateResidencyTicks::UNDEFINED  80543136200                       # Cumulative time (in ticks) in various power states (Tick)
system.pc.pci_host.power_state.pwrStateResidencyTicks::UNDEFINED  80543136200                       # Cumulative time (in ticks) in various power states (Tick)
system.pc.south_bridge.cmos.power_state.pwrStateResidencyTicks::UNDEFINED  80543136200                       # Cumulative time (in ticks) in various power states (Tick)
system.pc.south_bridge.dma1.power_state.pwrStateResidencyTicks::UNDEFINED  80543136200                       # Cumulative time (in ticks) in various power states (Tick)
system.pc.south_bridge.ide.disks0.IdeDisk.dmaReadFullPages            0                       # Number of full page size DMA reads (not PRD). (Count)
system.pc.south_bridge.ide.disks0.IdeDisk.dmaReadBytes            0                       # Number of bytes transfered via DMA reads (not PRD). (Byte)
system.pc.south_bridge.ide.disks0.IdeDisk.dmaReadTxs            0                       # Number of DMA read transactions (not PRD). (Count)
system.pc.south_bridge.ide.disks0.IdeDisk.dmaWriteFullPages            0                       # Number of full page size DMA writes. (Count)
system.pc.south_bridge.ide.disks0.IdeDisk.dmaWriteBytes            0                       # Number of bytes transfered via DMA writes. (Byte)
system.pc.south_bridge.ide.disks0.IdeDisk.dmaWriteTxs            0                       # Number of DMA write transactions. (Count)
system.pc.south_bridge.ide.disks1.IdeDisk.dmaReadFullPages            0                       # Number of full page size DMA reads (not PRD). (Count)
system.pc.south_bridge.ide.disks1.IdeDisk.dmaReadBytes            0                       # Number of bytes transfered via DMA reads (not PRD). (Byte)
system.pc.south_bridge.ide.disks1.IdeDisk.dmaReadTxs            0                       # Number of DMA read transactions (not PRD). (Count)
system.pc.south_bridge.ide.disks1.IdeDisk.dmaWriteFullPages            0                       # Number of full page size DMA writes. (Count)
system.pc.south_bridge.ide.disks1.IdeDisk.dmaWriteBytes            0                       # Number of bytes transfered via DMA writes. (Byte)
system.pc.south_bridge.ide.disks1.IdeDisk.dmaWriteTxs            0                       # Number of DMA write transactions. (Count)
system.pc.south_bridge.ide.power_state.pwrStateResidencyTicks::UNDEFINED  80543136200                       # Cumulative time (in ticks) in various power states (Tick)
system.pc.south_bridge.io_apic.power_state.pwrStateResidencyTicks::UNDEFINED  80543136200                       # Cumulative time (in ticks) in various power states (Tick)
system.pc.south_bridge.keyboard.power_state.pwrStateResidencyTicks::UNDEFINED  80543136200                       # Cumulative time (in ticks) in various power states (Tick)
system.pc.south_bridge.pic1.power_state.pwrStateResidencyTicks::UNDEFINED  80543136200                       # Cumulative time (in ticks) in various power states (Tick)
system.pc.south_bridge.pic2.power_state.pwrStateResidencyTicks::UNDEFINED  80543136200                       # Cumulative time (in ticks) in various power states (Tick)
system.pc.south_bridge.pit.power_state.pwrStateResidencyTicks::UNDEFINED  80543136200                       # Cumulative time (in ticks) in various power states (Tick)
system.pc.south_bridge.speaker.power_state.pwrStateResidencyTicks::UNDEFINED  80543136200                       # Cumulative time (in ticks) in various power states (Tick)
system.workload.inst.arm                            0                       # number of arm instructions executed (Count)
system.workload.inst.quiesce                        0                       # number of quiesce instructions executed (Count)

---------- End Simulation Statistics   ----------
