
---------- Begin Simulation Statistics ----------
simSeconds                                   0.024134                       # Number of seconds simulated (Second)
simTicks                                  24133543950                       # Number of ticks simulated (Tick)
finalTick                                217540360373400                       # Number of ticks from beginning of simulation (restored from checkpoints and never reset) (Tick)
simFreq                                  1000000000000                       # The number of ticks per simulated second ((Tick/Second))
hostSeconds                                  10665.64                       # Real time elapsed on the host (Second)
hostTickRate                                  2262738                       # The number of ticks simulated per host second (ticks/s) ((Tick/Second))
hostMemory                                   19762424                       # Number of bytes of host memory used (Byte)
simInsts                                    238244254                       # Number of instructions simulated (Count)
simOps                                      381071274                       # Number of ops (including micro ops) simulated (Count)
hostInstRate                                    22338                       # Simulator instruction rate (inst/s) ((Count/Second))
hostOpRate                                      35729                       # Simulator op (including micro ops) rate (op/s) ((Count/Second))
system.caches.delayHistogram::bucket_size         1024                       # delay histogram for all message (Unspecified)
system.caches.delayHistogram::max_bucket        10239                       # delay histogram for all message (Unspecified)
system.caches.delayHistogram::samples        13644259                       # delay histogram for all message (Unspecified)
system.caches.delayHistogram::mean           0.220236                       # delay histogram for all message (Unspecified)
system.caches.delayHistogram::stdev          3.098309                       # delay histogram for all message (Unspecified)
system.caches.delayHistogram             |    13644252    100.00%    100.00% |           2      0.00%    100.00% |           1      0.00%    100.00% |           1      0.00%    100.00% |           1      0.00%    100.00% |           1      0.00%    100.00% |           1      0.00%    100.00% |           0      0.00%    100.00% |           0      0.00%    100.00% |           0      0.00%    100.00% # delay histogram for all message (Unspecified)
system.caches.delayHistogram::total          13644259                       # delay histogram for all message (Unspecified)
system.caches.m_outstandReqHistSeqr::bucket_size            2                       (Unspecified)
system.caches.m_outstandReqHistSeqr::max_bucket           19                       (Unspecified)
system.caches.m_outstandReqHistSeqr::samples    217917278                       (Unspecified)
system.caches.m_outstandReqHistSeqr::mean     3.473755                       (Unspecified)
system.caches.m_outstandReqHistSeqr::gmean     2.449379                       (Unspecified)
system.caches.m_outstandReqHistSeqr::stdev     3.235541                       (Unspecified)
system.caches.m_outstandReqHistSeqr      |    76831503     35.26%     35.26% |    64818709     29.74%     65.00% |    35426147     16.26%     81.26% |    18461748      8.47%     89.73% |     9048555      4.15%     93.88% |     4643842      2.13%     96.01% |     2855318      1.31%     97.32% |     2229078      1.02%     98.35% |     3602378      1.65%    100.00% |           0      0.00%    100.00% (Unspecified)
system.caches.m_outstandReqHistSeqr::total    217917278                       (Unspecified)
system.caches.m_latencyHistSeqr::bucket_size         1024                       (Unspecified)
system.caches.m_latencyHistSeqr::max_bucket        10239                       (Unspecified)
system.caches.m_latencyHistSeqr::samples    219430036                       (Unspecified)
system.caches.m_latencyHistSeqr::mean        6.853073                       (Unspecified)
system.caches.m_latencyHistSeqr::gmean       1.063695                       (Unspecified)
system.caches.m_latencyHistSeqr::stdev      74.327773                       (Unspecified)
system.caches.m_latencyHistSeqr          |   219143477     99.87%     99.87% |      258521      0.12%     99.99% |       26110      0.01%    100.00% |        1771      0.00%    100.00% |         127      0.00%    100.00% |          22      0.00%    100.00% |           8      0.00%    100.00% |           0      0.00%    100.00% |           0      0.00%    100.00% |           0      0.00%    100.00% (Unspecified)
system.caches.m_latencyHistSeqr::total      219430036                       (Unspecified)
system.caches.m_hitLatencyHistSeqr::bucket_size          512                       (Unspecified)
system.caches.m_hitLatencyHistSeqr::max_bucket         5119                       (Unspecified)
system.caches.m_hitLatencyHistSeqr::samples    217298016                       (Unspecified)
system.caches.m_hitLatencyHistSeqr::mean     1.008170                       (Unspecified)
system.caches.m_hitLatencyHistSeqr::gmean     1.005420                       (Unspecified)
system.caches.m_hitLatencyHistSeqr::stdev     0.645517                       (Unspecified)
system.caches.m_hitLatencyHistSeqr       |   217297953    100.00%    100.00% |          42      0.00%    100.00% |          14      0.00%    100.00% |           3      0.00%    100.00% |           1      0.00%    100.00% |           2      0.00%    100.00% |           1      0.00%    100.00% |           0      0.00%    100.00% |           0      0.00%    100.00% |           0      0.00%    100.00% (Unspecified)
system.caches.m_hitLatencyHistSeqr::total    217298016                       (Unspecified)
system.caches.m_missLatencyHistSeqr::bucket_size         1024                       (Unspecified)
system.caches.m_missLatencyHistSeqr::max_bucket        10239                       (Unspecified)
system.caches.m_missLatencyHistSeqr::samples      2132020                       (Unspecified)
system.caches.m_missLatencyHistSeqr::mean   602.572540                       (Unspecified)
system.caches.m_missLatencyHistSeqr::gmean   331.724533                       (Unspecified)
system.caches.m_missLatencyHistSeqr::stdev   458.469483                       (Unspecified)
system.caches.m_missLatencyHistSeqr      |     1845482     86.56%     86.56% |      258504     12.12%     98.69% |       26107      1.22%     99.91% |        1770      0.08%     99.99% |         127      0.01%    100.00% |          22      0.00%    100.00% |           8      0.00%    100.00% |           0      0.00%    100.00% |           0      0.00%    100.00% |           0      0.00%    100.00% (Unspecified)
system.caches.m_missLatencyHistSeqr::total      2132020                       (Unspecified)
system.caches.delayVCHist.vnet_0::bucket_size         1024                       # delay histogram for vnet_0 (Unspecified)
system.caches.delayVCHist.vnet_0::max_bucket        10239                       # delay histogram for vnet_0 (Unspecified)
system.caches.delayVCHist.vnet_0::samples      5744912                       # delay histogram for vnet_0 (Unspecified)
system.caches.delayVCHist.vnet_0::mean       0.426113                       # delay histogram for vnet_0 (Unspecified)
system.caches.delayVCHist.vnet_0::stdev      4.707753                       # delay histogram for vnet_0 (Unspecified)
system.caches.delayVCHist.vnet_0         |     5744905    100.00%    100.00% |           2      0.00%    100.00% |           1      0.00%    100.00% |           1      0.00%    100.00% |           1      0.00%    100.00% |           1      0.00%    100.00% |           1      0.00%    100.00% |           0      0.00%    100.00% |           0      0.00%    100.00% |           0      0.00%    100.00% # delay histogram for vnet_0 (Unspecified)
system.caches.delayVCHist.vnet_0::total       5744912                       # delay histogram for vnet_0 (Unspecified)
system.caches.delayVCHist.vnet_1::bucket_size            8                       # delay histogram for vnet_1 (Unspecified)
system.caches.delayVCHist.vnet_1::max_bucket           79                       # delay histogram for vnet_1 (Unspecified)
system.caches.delayVCHist.vnet_1::samples      7538499                       # delay histogram for vnet_1 (Unspecified)
system.caches.delayVCHist.vnet_1::mean       0.073871                       # delay histogram for vnet_1 (Unspecified)
system.caches.delayVCHist.vnet_1::stdev      0.654728                       # delay histogram for vnet_1 (Unspecified)
system.caches.delayVCHist.vnet_1         |     7523974     99.81%     99.81% |       12831      0.17%     99.98% |        1411      0.02%    100.00% |         219      0.00%    100.00% |          46      0.00%    100.00% |          17      0.00%    100.00% |           1      0.00%    100.00% |           0      0.00%    100.00% |           0      0.00%    100.00% |           0      0.00%    100.00% # delay histogram for vnet_1 (Unspecified)
system.caches.delayVCHist.vnet_1::total       7538499                       # delay histogram for vnet_1 (Unspecified)
system.caches.delayVCHist.vnet_2::bucket_size            1                       # delay histogram for vnet_2 (Unspecified)
system.caches.delayVCHist.vnet_2::max_bucket            9                       # delay histogram for vnet_2 (Unspecified)
system.caches.delayVCHist.vnet_2::samples       360848                       # delay histogram for vnet_2 (Unspecified)
system.caches.delayVCHist.vnet_2::mean       0.000305                       # delay histogram for vnet_2 (Unspecified)
system.caches.delayVCHist.vnet_2::stdev      0.025572                       # delay histogram for vnet_2 (Unspecified)
system.caches.delayVCHist.vnet_2         |      360795     99.99%     99.99% |           0      0.00%     99.99% |          51      0.01%    100.00% |           0      0.00%    100.00% |           2      0.00%    100.00% |           0      0.00%    100.00% |           0      0.00%    100.00% |           0      0.00%    100.00% |           0      0.00%    100.00% |           0      0.00%    100.00% # delay histogram for vnet_2 (Unspecified)
system.caches.delayVCHist.vnet_2::total        360848                       # delay histogram for vnet_2 (Unspecified)
system.caches.L1Cache_Controller.Load    |    13072560     12.40%     12.40% |    13195315     12.52%     24.92% |    13378682     12.69%     37.61% |    13408168     12.72%     50.33% |    13127420     12.45%     62.79% |    12912642     12.25%     75.04% |    13071443     12.40%     87.44% |    13242460     12.56%    100.00% (Unspecified)
system.caches.L1Cache_Controller.Load::total    105408690                       (Unspecified)
system.caches.L1Cache_Controller.Ifetch  |    14095361     12.65%     12.65% |    13968001     12.53%     25.18% |    13916099     12.49%     37.67% |    13917488     12.49%     50.15% |    13912981     12.48%     62.64% |    13953652     12.52%     75.16% |    13840568     12.42%     87.58% |    13844432     12.42%    100.00% (Unspecified)
system.caches.L1Cache_Controller.Ifetch::total    111448582                       (Unspecified)
system.caches.L1Cache_Controller.Store   |      319022     12.40%     12.40% |      312298     12.14%     24.54% |      313238     12.18%     36.71% |      312934     12.16%     48.88% |      331558     12.89%     61.76% |      359527     13.97%     75.74% |      311718     12.12%     87.85% |      312472     12.15%    100.00% (Unspecified)
system.caches.L1Cache_Controller.Store::total      2572767                       (Unspecified)
system.caches.L1Cache_Controller.Inv     |       37329     12.48%     12.48% |       39367     13.16%     25.64% |       36882     12.33%     37.97% |       31246     10.45%     48.41% |       37358     12.49%     60.90% |       41363     13.83%     74.73% |       36756     12.29%     87.02% |       38830     12.98%    100.00% (Unspecified)
system.caches.L1Cache_Controller.Inv::total       299131                       (Unspecified)
system.caches.L1Cache_Controller.L1_Replacement |      266837     13.26%     13.26% |      251272     12.49%     25.76% |      249074     12.38%     38.14% |      249667     12.41%     50.55% |      249012     12.38%     62.93% |      250387     12.45%     75.37% |      247586     12.31%     87.68% |      247780     12.32%    100.00% (Unspecified)
system.caches.L1Cache_Controller.L1_Replacement::total      2011615                       (Unspecified)
system.caches.L1Cache_Controller.Fwd_GETX |         131     12.24%     12.24% |         135     12.62%     24.86% |         139     12.99%     37.85% |         140     13.08%     50.93% |         136     12.71%     63.64% |         124     11.59%     75.23% |         131     12.24%     87.48% |         134     12.52%    100.00% (Unspecified)
system.caches.L1Cache_Controller.Fwd_GETX::total         1070                       (Unspecified)
system.caches.L1Cache_Controller.Fwd_GETS |        8822     14.55%     14.55% |        7763     12.80%     27.35% |        7008     11.56%     38.90% |        6955     11.47%     50.37% |        7289     12.02%     62.39% |        7197     11.87%     74.26% |        6902     11.38%     85.64% |        8711     14.36%    100.00% (Unspecified)
system.caches.L1Cache_Controller.Fwd_GETS::total        60647                       (Unspecified)
system.caches.L1Cache_Controller.Data    |          28     63.64%     63.64% |           4      9.09%     72.73% |           1      2.27%     75.00% |           2      4.55%     79.55% |           0      0.00%     79.55% |           7     15.91%     95.45% |           2      4.55%    100.00% |           0      0.00%    100.00% (Unspecified)
system.caches.L1Cache_Controller.Data::total           44                       (Unspecified)
system.caches.L1Cache_Controller.Data_Exclusive |      233302     12.77%     12.77% |      229567     12.57%     25.34% |      227121     12.44%     37.78% |      227922     12.48%     50.26% |      227501     12.46%     62.72% |      227360     12.45%     75.17% |      226220     12.39%     87.55% |      227305     12.45%    100.00% (Unspecified)
system.caches.L1Cache_Controller.Data_Exclusive::total      1826298                       (Unspecified)
system.caches.L1Cache_Controller.DataS_fromL1 |        7979     13.16%     13.16% |        7674     12.65%     25.81% |        7331     12.09%     37.90% |        7563     12.47%     50.37% |        7410     12.22%     62.59% |        7926     13.07%     75.66% |        7789     12.84%     88.50% |        6975     11.50%    100.00% (Unspecified)
system.caches.L1Cache_Controller.DataS_fromL1::total        60647                       (Unspecified)
system.caches.L1Cache_Controller.Data_all_Acks |       29299     13.79%     13.79% |       26047     12.26%     26.05% |       26809     12.62%     38.67% |       26150     12.31%     50.98% |       26098     12.28%     63.26% |       27457     12.92%     76.19% |       25591     12.05%     88.23% |       25000     11.77%    100.00% (Unspecified)
system.caches.L1Cache_Controller.Data_all_Acks::total       212451                       (Unspecified)
system.caches.L1Cache_Controller.Ack     |       14936     14.21%     14.21% |       13437     12.78%     27.00% |       12913     12.29%     39.28% |       12351     11.75%     51.03% |       11676     11.11%     62.14% |       11347     10.80%     72.94% |       11883     11.31%     84.25% |       16558     15.75%    100.00% (Unspecified)
system.caches.L1Cache_Controller.Ack::total       105101                       (Unspecified)
system.caches.L1Cache_Controller.Ack_all |        4304     13.19%     13.19% |        4219     12.93%     26.12% |        4038     12.38%     38.50% |        3955     12.12%     50.63% |        3791     11.62%     62.25% |        3855     11.82%     74.06% |        3953     12.12%     86.18% |        4509     13.82%    100.00% (Unspecified)
system.caches.L1Cache_Controller.Ack_all::total        32624                       (Unspecified)
system.caches.L1Cache_Controller.WB_Ack  |      223890     13.26%     13.26% |      210474     12.46%     25.72% |      209868     12.43%     38.14% |      210962     12.49%     50.63% |      209229     12.39%     63.02% |      207993     12.31%     75.34% |      210007     12.43%     87.77% |      206539     12.23%    100.00% (Unspecified)
system.caches.L1Cache_Controller.WB_Ack::total      1688962                       (Unspecified)
system.caches.L1Cache_Controller.NP.Load |      265659     12.89%     12.89% |      258704     12.55%     25.44% |      256314     12.43%     37.87% |      257086     12.47%     50.35% |      256392     12.44%     62.78% |      256780     12.46%     75.24% |      255067     12.37%     87.62% |      255275     12.38%    100.00% (Unspecified)
system.caches.L1Cache_Controller.NP.Load::total      2061277                       (Unspecified)
system.caches.L1Cache_Controller.NP.Ifetch |        1293     12.72%     12.72% |        1124     11.06%     23.77% |        1286     12.65%     36.42% |        1135     11.16%     47.59% |        1225     12.05%     59.63% |        1908     18.77%     78.40% |        1109     10.91%     89.31% |        1087     10.69%    100.00% (Unspecified)
system.caches.L1Cache_Controller.NP.Ifetch::total        10167                       (Unspecified)
system.caches.L1Cache_Controller.NP.Store |         422     16.14%     16.14% |         243      9.30%     25.44% |         277     10.60%     36.04% |         235      8.99%     45.03% |         259      9.91%     54.93% |         774     29.61%     84.54% |         202      7.73%     92.27% |         202      7.73%    100.00% (Unspecified)
system.caches.L1Cache_Controller.NP.Store::total         2614                       (Unspecified)
system.caches.L1Cache_Controller.NP.Inv  |       23402     14.05%     14.05% |       20496     12.30%     26.35% |       20634     12.39%     38.74% |       20910     12.55%     51.30% |       20271     12.17%     63.47% |       20283     12.18%     75.64% |       20504     12.31%     87.95% |       20068     12.05%    100.00% (Unspecified)
system.caches.L1Cache_Controller.NP.Inv::total       166568                       (Unspecified)
system.caches.L1Cache_Controller.I.Load  |        1709     11.72%     11.72% |        1930     13.24%     24.96% |        1910     13.10%     38.06% |        1896     13.00%     51.06% |        1861     12.76%     63.82% |        1953     13.39%     77.22% |        1914     13.13%     90.34% |        1408      9.66%    100.00% (Unspecified)
system.caches.L1Cache_Controller.I.Load::total        14581                       (Unspecified)
system.caches.L1Cache_Controller.I.Ifetch |        1298     14.40%     14.40% |        1073     11.91%     26.31% |        1249     13.86%     40.17% |        1068     11.85%     52.02% |        1068     11.85%     63.87% |        1100     12.21%     76.08% |        1080     11.98%     88.06% |        1076     11.94%    100.00% (Unspecified)
system.caches.L1Cache_Controller.I.Ifetch::total         9012                       (Unspecified)
system.caches.L1Cache_Controller.I.Store |         227     12.69%     12.69% |         218     12.19%     24.87% |         226     12.63%     37.51% |         216     12.07%     49.58% |         205     11.46%     61.04% |         235     13.14%     74.18% |         230     12.86%     87.03% |         232     12.97%    100.00% (Unspecified)
system.caches.L1Cache_Controller.I.Store::total         1789                       (Unspecified)
system.caches.L1Cache_Controller.I.L1_Replacement |       10390     14.45%     14.45% |        9361     13.02%     27.47% |        7512     10.45%     37.92% |        6870      9.56%     47.48% |        8862     12.33%     59.80% |       11266     15.67%     75.47% |        6793      9.45%     84.92% |       10840     15.08%    100.00% (Unspecified)
system.caches.L1Cache_Controller.I.L1_Replacement::total        71894                       (Unspecified)
system.caches.L1Cache_Controller.S.Load  |     7175111     12.32%     12.32% |     7345887     12.61%     24.93% |     7414284     12.73%     37.66% |     7576736     13.01%     50.67% |     7292239     12.52%     63.19% |     7048194     12.10%     75.29% |     7007536     12.03%     87.32% |     7383311     12.68%    100.00% (Unspecified)
system.caches.L1Cache_Controller.S.Load::total     58243298                       (Unspecified)
system.caches.L1Cache_Controller.S.Ifetch |    14092770     12.65%     12.65% |    13965804     12.53%     25.18% |    13913564     12.49%     37.67% |    13915285     12.49%     50.16% |    13910688     12.48%     62.64% |    13950643     12.52%     75.16% |    13838379     12.42%     87.58% |    13842269     12.42%    100.00% (Unspecified)
system.caches.L1Cache_Controller.S.Ifetch::total    111429402                       (Unspecified)
system.caches.L1Cache_Controller.S.Store |        4276     13.12%     13.12% |        4215     12.94%     26.06% |        4037     12.39%     38.45% |        3954     12.14%     50.59% |        3791     11.64%     62.22% |        3848     11.81%     74.03% |        3951     12.13%     86.16% |        4509     13.84%    100.00% (Unspecified)
system.caches.L1Cache_Controller.S.Store::total        32581                       (Unspecified)
system.caches.L1Cache_Controller.S.Inv   |        7816     13.49%     13.49% |        7445     12.85%     26.35% |        6815     11.77%     38.11% |        6613     11.42%     49.53% |        7260     12.53%     62.07% |        8135     14.05%     76.11% |        6974     12.04%     88.15% |        6862     11.85%    100.00% (Unspecified)
system.caches.L1Cache_Controller.S.Inv::total        57920                       (Unspecified)
system.caches.L1Cache_Controller.S.L1_Replacement |       32557     12.98%     12.98% |       31437     12.54%     25.52% |       31693     12.64%     38.16% |       31835     12.70%     50.85% |       30921     12.33%     63.19% |       31128     12.41%     75.60% |       30786     12.28%     87.88% |       30401     12.12%    100.00% (Unspecified)
system.caches.L1Cache_Controller.S.L1_Replacement::total       250758                       (Unspecified)
system.caches.L1Cache_Controller.E.Load  |     1911035     12.10%     12.10% |     1908269     12.08%     24.18% |     2052625     12.99%     37.17% |     1975028     12.50%     49.68% |     1964960     12.44%     62.12% |     1891721     11.98%     74.09% |     2183733     13.82%     87.92% |     1908574     12.08%    100.00% (Unspecified)
system.caches.L1Cache_Controller.E.Load::total     15795945                       (Unspecified)
system.caches.L1Cache_Controller.E.Store |       28986     12.46%     12.46% |       28910     12.43%     24.89% |       29101     12.51%     37.40% |       29152     12.53%     49.94% |       29320     12.61%     62.54% |       29340     12.61%     75.16% |       29157     12.54%     87.69% |       28626     12.31%    100.00% (Unspecified)
system.caches.L1Cache_Controller.E.Store::total       232592                       (Unspecified)
system.caches.L1Cache_Controller.E.Inv   |        4529      6.97%      6.97% |       10074     15.49%     22.46% |        7885     12.13%     34.59% |        2547      3.92%     38.51% |        8996     13.84%     52.34% |       11608     17.85%     70.20% |        8703     13.39%     83.58% |       10675     16.42%    100.00% (Unspecified)
system.caches.L1Cache_Controller.E.Inv::total        65017                       (Unspecified)
system.caches.L1Cache_Controller.E.L1_Replacement |      178844     12.53%     12.53% |      180144     12.62%     25.15% |      179252     12.56%     37.71% |      180034     12.61%     50.32% |      177748     12.45%     62.78% |      176546     12.37%     75.14% |      178303     12.49%     87.64% |      176473     12.36%    100.00% (Unspecified)
system.caches.L1Cache_Controller.E.L1_Replacement::total      1427344                       (Unspecified)
system.caches.L1Cache_Controller.E.Fwd_GETX |           3      7.89%      7.89% |           4     10.53%     18.42% |           7     18.42%     36.84% |           5     13.16%     50.00% |           7     18.42%     68.42% |           1      2.63%     71.05% |           5     13.16%     84.21% |           6     15.79%    100.00% (Unspecified)
system.caches.L1Cache_Controller.E.Fwd_GETX::total           38                       (Unspecified)
system.caches.L1Cache_Controller.E.Fwd_GETS |        6158     12.82%     12.82% |        6015     12.52%     25.34% |        5696     11.86%     37.20% |        5658     11.78%     48.98% |        6175     12.86%     61.84% |        5949     12.39%     74.22% |        5799     12.07%     86.29% |        6583     13.71%    100.00% (Unspecified)
system.caches.L1Cache_Controller.E.Fwd_GETS::total        48033                       (Unspecified)
system.caches.L1Cache_Controller.M.Load  |     3719046     12.70%     12.70% |     3680525     12.56%     25.26% |     3653549     12.47%     37.73% |     3597422     12.28%     50.01% |     3611968     12.33%     62.34% |     3713993     12.68%     75.02% |     3623193     12.37%     87.39% |     3693892     12.61%    100.00% (Unspecified)
system.caches.L1Cache_Controller.M.Load::total     29293588                       (Unspecified)
system.caches.L1Cache_Controller.M.Store |      285111     12.38%     12.38% |      278712     12.10%     24.48% |      279597     12.14%     36.62% |      279377     12.13%     48.75% |      297983     12.94%     61.69% |      325330     14.13%     75.81% |      278178     12.08%     87.89% |      278903     12.11%    100.00% (Unspecified)
system.caches.L1Cache_Controller.M.Store::total      2303191                       (Unspecified)
system.caches.L1Cache_Controller.M.Inv   |        1582     16.46%     16.46% |        1350     14.05%     30.51% |        1545     16.08%     46.59% |        1172     12.20%     58.78% |         828      8.62%     67.40% |        1337     13.91%     81.31% |         573      5.96%     87.27% |        1223     12.73%    100.00% (Unspecified)
system.caches.L1Cache_Controller.M.Inv::total         9610                       (Unspecified)
system.caches.L1Cache_Controller.M.L1_Replacement |       45046     17.22%     17.22% |       30330     11.59%     28.81% |       30616     11.70%     40.51% |       30928     11.82%     52.34% |       31481     12.03%     64.37% |       31447     12.02%     76.39% |       31704     12.12%     88.51% |       30066     11.49%    100.00% (Unspecified)
system.caches.L1Cache_Controller.M.L1_Replacement::total       261618                       (Unspecified)
system.caches.L1Cache_Controller.M.Fwd_GETX |         128     12.40%     12.40% |         131     12.69%     25.10% |         132     12.79%     37.89% |         135     13.08%     50.97% |         129     12.50%     63.47% |         123     11.92%     75.39% |         126     12.21%     87.60% |         128     12.40%    100.00% (Unspecified)
system.caches.L1Cache_Controller.M.Fwd_GETX::total         1032                       (Unspecified)
system.caches.L1Cache_Controller.M.Fwd_GETS |        2664     21.12%     21.12% |        1748     13.86%     34.98% |        1312     10.40%     45.38% |        1297     10.28%     55.66% |        1114      8.83%     64.49% |        1248      9.89%     74.39% |        1103      8.74%     83.13% |        2128     16.87%    100.00% (Unspecified)
system.caches.L1Cache_Controller.M.Fwd_GETS::total        12614                       (Unspecified)
system.caches.L1Cache_Controller.IS.Inv  |           0      0.00%      0.00% |           2     13.33%     13.33% |           3     20.00%     33.33% |           3     20.00%     53.33% |           3     20.00%     73.33% |           0      0.00%     73.33% |           2     13.33%     86.67% |           2     13.33%    100.00% (Unspecified)
system.caches.L1Cache_Controller.IS.Inv::total           15                       (Unspecified)
system.caches.L1Cache_Controller.IS.L1_Replacement |           0      0.00%      0.00% |           0      0.00%      0.00% |           1    100.00%    100.00% |           0      0.00%    100.00% |           0      0.00%    100.00% |           0      0.00%    100.00% |           0      0.00%    100.00% |           0      0.00%    100.00% (Unspecified)
system.caches.L1Cache_Controller.IS.L1_Replacement::total            1                       (Unspecified)
system.caches.L1Cache_Controller.IS.Data_Exclusive |      233302     12.77%     12.77% |      229567     12.57%     25.34% |      227121     12.44%     37.78% |      227922     12.48%     50.26% |      227501     12.46%     62.72% |      227360     12.45%     75.17% |      226220     12.39%     87.55% |      227305     12.45%    100.00% (Unspecified)
system.caches.L1Cache_Controller.IS.Data_Exclusive::total      1826298                       (Unspecified)
system.caches.L1Cache_Controller.IS.DataS_fromL1 |        7979     13.16%     13.16% |        7674     12.65%     25.81% |        7331     12.09%     37.90% |        7563     12.47%     50.37% |        7410     12.22%     62.59% |        7926     13.07%     75.66% |        7789     12.84%     88.50% |        6975     11.50%    100.00% (Unspecified)
system.caches.L1Cache_Controller.IS.DataS_fromL1::total        60647                       (Unspecified)
system.caches.L1Cache_Controller.IS.Data_all_Acks |       28678     13.78%     13.78% |       25588     12.30%     26.08% |       26304     12.64%     38.72% |       25697     12.35%     51.07% |       25631     12.32%     63.39% |       26455     12.71%     76.10% |       25159     12.09%     88.19% |       24564     11.81%    100.00% (Unspecified)
system.caches.L1Cache_Controller.IS.Data_all_Acks::total       208076                       (Unspecified)
system.caches.L1Cache_Controller.IM.Data |          28     63.64%     63.64% |           4      9.09%     72.73% |           1      2.27%     75.00% |           2      4.55%     79.55% |           0      0.00%     79.55% |           7     15.91%     95.45% |           2      4.55%    100.00% |           0      0.00%    100.00% (Unspecified)
system.caches.L1Cache_Controller.IM.Data::total           44                       (Unspecified)
system.caches.L1Cache_Controller.IM.Data_all_Acks |         621     14.24%     14.24% |         457     10.48%     24.72% |         502     11.51%     36.24% |         450     10.32%     46.56% |         464     10.64%     57.20% |        1002     22.98%     80.18% |         430      9.86%     90.05% |         434      9.95%    100.00% (Unspecified)
system.caches.L1Cache_Controller.IM.Data_all_Acks::total         4360                       (Unspecified)
system.caches.L1Cache_Controller.SM.Inv  |           0      0.00%      0.00% |           0      0.00%      0.00% |           0      0.00%      0.00% |           1    100.00%    100.00% |           0      0.00%    100.00% |           0      0.00%    100.00% |           0      0.00%    100.00% |           0      0.00%    100.00% (Unspecified)
system.caches.L1Cache_Controller.SM.Inv::total            1                       (Unspecified)
system.caches.L1Cache_Controller.SM.Ack  |       14936     14.21%     14.21% |       13437     12.78%     27.00% |       12913     12.29%     39.28% |       12351     11.75%     51.03% |       11676     11.11%     62.14% |       11347     10.80%     72.94% |       11883     11.31%     84.25% |       16558     15.75%    100.00% (Unspecified)
system.caches.L1Cache_Controller.SM.Ack::total       105101                       (Unspecified)
system.caches.L1Cache_Controller.SM.Ack_all |        4304     13.19%     13.19% |        4219     12.93%     26.12% |        4038     12.38%     38.50% |        3955     12.12%     50.63% |        3791     11.62%     62.25% |        3855     11.82%     74.06% |        3953     12.12%     86.18% |        4509     13.82%    100.00% (Unspecified)
system.caches.L1Cache_Controller.SM.Ack_all::total        32624                       (Unspecified)
system.caches.L1Cache_Controller.IS_I.Data_all_Acks |           0      0.00%      0.00% |           2     13.33%     13.33% |           3     20.00%     33.33% |           3     20.00%     53.33% |           3     20.00%     73.33% |           0      0.00%     73.33% |           2     13.33%     86.67% |           2     13.33%    100.00% (Unspecified)
system.caches.L1Cache_Controller.IS_I.Data_all_Acks::total           15                       (Unspecified)
system.caches.L1Cache_Controller.M_I.Load |           0      0.00%      0.00% |           0      0.00%      0.00% |           0      0.00%      0.00% |           0      0.00%      0.00% |           0      0.00%      0.00% |           1    100.00%    100.00% |           0      0.00%    100.00% |           0      0.00%    100.00% (Unspecified)
system.caches.L1Cache_Controller.M_I.Load::total            1                       (Unspecified)
system.caches.L1Cache_Controller.M_I.Ifetch |           0      0.00%      0.00% |           0      0.00%      0.00% |           0      0.00%      0.00% |           0      0.00%      0.00% |           0      0.00%      0.00% |           1    100.00%    100.00% |           0      0.00%    100.00% |           0      0.00%    100.00% (Unspecified)
system.caches.L1Cache_Controller.M_I.Ifetch::total            1                       (Unspecified)
system.caches.L1Cache_Controller.M_I.WB_Ack |      223890     13.26%     13.26% |      210474     12.46%     25.72% |      209868     12.43%     38.14% |      210962     12.49%     50.63% |      209229     12.39%     63.02% |      207993     12.31%     75.34% |      210007     12.43%     87.77% |      206539     12.23%    100.00% (Unspecified)
system.caches.L1Cache_Controller.M_I.WB_Ack::total      1688962                       (Unspecified)
system.caches.Directory_Controller.Fetch |        2999      0.17%      0.17% |     1741407     99.83%    100.00% (Unspecified)
system.caches.Directory_Controller.Fetch::total      1744406                       (Unspecified)
system.caches.Directory_Controller.Data  |          80      0.02%      0.02% |      333031     99.98%    100.00% (Unspecified)
system.caches.Directory_Controller.Data::total       333111                       (Unspecified)
system.caches.Directory_Controller.Memory_Data |        2999      0.17%      0.17% |     1741406     99.83%    100.00% (Unspecified)
system.caches.Directory_Controller.Memory_Data::total      1744405                       (Unspecified)
system.caches.Directory_Controller.Memory_Ack |          80      0.02%      0.02% |      333031     99.98%    100.00% (Unspecified)
system.caches.Directory_Controller.Memory_Ack::total       333111                       (Unspecified)
system.caches.Directory_Controller.CleanReplacement |        2727      0.21%      0.21% |     1277496     99.79%    100.00% (Unspecified)
system.caches.Directory_Controller.CleanReplacement::total      1280223                       (Unspecified)
system.caches.Directory_Controller.I.Fetch |        2999      0.17%      0.17% |     1741407     99.83%    100.00% (Unspecified)
system.caches.Directory_Controller.I.Fetch::total      1744406                       (Unspecified)
system.caches.Directory_Controller.M.Data |          80      0.02%      0.02% |      333031     99.98%    100.00% (Unspecified)
system.caches.Directory_Controller.M.Data::total       333111                       (Unspecified)
system.caches.Directory_Controller.M.CleanReplacement |        2727      0.21%      0.21% |     1277496     99.79%    100.00% (Unspecified)
system.caches.Directory_Controller.M.CleanReplacement::total      1280223                       (Unspecified)
system.caches.Directory_Controller.IM.Memory_Data |        2999      0.17%      0.17% |     1741406     99.83%    100.00% (Unspecified)
system.caches.Directory_Controller.IM.Memory_Data::total      1744405                       (Unspecified)
system.caches.Directory_Controller.MI.Memory_Ack |          80      0.02%      0.02% |      333031     99.98%    100.00% (Unspecified)
system.caches.Directory_Controller.MI.Memory_Ack::total       333111                       (Unspecified)
system.caches.L2Cache_Controller.L1_GET_INSTR |        2591     13.49%     13.49% |        3117     16.22%     29.71% |        2227     11.59%     41.30% |        1946     10.13%     51.43% |        2300     11.97%     63.40% |        2212     11.51%     74.92% |        2266     11.79%     86.71% |        2553     13.29%    100.00% (Unspecified)
system.caches.L2Cache_Controller.L1_GET_INSTR::total        19212                       (Unspecified)
system.caches.L2Cache_Controller.L1_GETS |      260863     12.56%     12.56% |      259486     12.50%     25.06% |      259454     12.50%     37.56% |      258450     12.45%     50.01% |      258731     12.46%     62.47% |      258882     12.47%     74.94% |      259148     12.48%     87.42% |      261267     12.58%    100.00% (Unspecified)
system.caches.L2Cache_Controller.L1_GETS::total      2076281                       (Unspecified)
system.caches.L2Cache_Controller.L1_GETX |         580     12.73%     12.73% |        1397     30.66%     43.39% |         186      4.08%     47.48% |         331      7.27%     54.74% |         399      8.76%     63.50% |         648     14.22%     77.72% |         415      9.11%     86.83% |         600     13.17%    100.00% (Unspecified)
system.caches.L2Cache_Controller.L1_GETX::total         4556                       (Unspecified)
system.caches.L2Cache_Controller.L1_UPGRADE |        4047     12.42%     12.42% |        4117     12.63%     25.05% |        4004     12.29%     37.34% |        3960     12.15%     49.49% |        4045     12.41%     61.90% |        4029     12.36%     74.26% |        4121     12.65%     86.91% |        4266     13.09%    100.00% (Unspecified)
system.caches.L2Cache_Controller.L1_UPGRADE::total        32589                       (Unspecified)
system.caches.L2Cache_Controller.L1_PUTX |      211284     12.51%     12.51% |      211351     12.51%     25.02% |      211051     12.50%     37.52% |      210964     12.49%     50.01% |      211043     12.50%     62.51% |      211151     12.50%     75.01% |      211107     12.50%     87.51% |      211011     12.49%    100.00% (Unspecified)
system.caches.L2Cache_Controller.L1_PUTX::total      1688962                       (Unspecified)
system.caches.L2Cache_Controller.L2_Replacement |       40577     12.51%     12.51% |       40455     12.47%     24.98% |       40591     12.51%     37.50% |       40500     12.49%     49.98% |       40458     12.47%     62.46% |       40616     12.52%     74.98% |       40623     12.52%     87.51% |       40527     12.49%    100.00% (Unspecified)
system.caches.L2Cache_Controller.L2_Replacement::total       324347                       (Unspecified)
system.caches.L2Cache_Controller.L2_Replacement_clean |      161312     12.51%     12.51% |      161259     12.51%     25.03% |      160963     12.49%     37.51% |      161004     12.49%     50.00% |      161116     12.50%     62.50% |      161132     12.50%     75.00% |      160983     12.49%     87.49% |      161218     12.51%    100.00% (Unspecified)
system.caches.L2Cache_Controller.L2_Replacement_clean::total      1288987                       (Unspecified)
system.caches.L2Cache_Controller.Mem_Data |      218273     12.51%     12.51% |      218098     12.50%     25.02% |      217938     12.49%     37.51% |      217888     12.49%     50.00% |      217958     12.49%     62.49% |      218132     12.50%     75.00% |      217989     12.50%     87.50% |      218129     12.50%    100.00% (Unspecified)
system.caches.L2Cache_Controller.Mem_Data::total      1744405                       (Unspecified)
system.caches.L2Cache_Controller.Mem_Ack |      201889     12.51%     12.51% |      201714     12.50%     25.02% |      201554     12.49%     37.51% |      201504     12.49%     50.00% |      201574     12.49%     62.49% |      201748     12.51%     75.00% |      201606     12.50%     87.50% |      201745     12.50%    100.00% (Unspecified)
system.caches.L2Cache_Controller.Mem_Ack::total      1613334                       (Unspecified)
system.caches.L2Cache_Controller.WB_Data |        2921     13.14%     13.14% |        2763     12.43%     25.58% |        2526     11.37%     36.94% |        2684     12.08%     49.02% |        2738     12.32%     61.34% |        2801     12.60%     73.94% |        2731     12.29%     86.23% |        3060     13.77%    100.00% (Unspecified)
system.caches.L2Cache_Controller.WB_Data::total        22224                       (Unspecified)
system.caches.L2Cache_Controller.WB_Data_clean |        6162     12.83%     12.83% |        5988     12.47%     25.30% |        5846     12.17%     37.47% |        5790     12.05%     49.52% |        5938     12.36%     61.88% |        5869     12.22%     74.10% |        5890     12.26%     86.36% |        6550     13.64%    100.00% (Unspecified)
system.caches.L2Cache_Controller.WB_Data_clean::total        48033                       (Unspecified)
system.caches.L2Cache_Controller.Ack     |       10769     13.05%     13.05% |       10358     12.55%     25.59% |       10205     12.36%     37.96% |        9943     12.05%     50.00% |       10306     12.49%     62.49% |       10177     12.33%     74.82% |       10066     12.19%     87.01% |       10720     12.99%    100.00% (Unspecified)
system.caches.L2Cache_Controller.Ack::total        82544                       (Unspecified)
system.caches.L2Cache_Controller.Ack_all |       12972     12.74%     12.74% |       12718     12.49%     25.23% |       12558     12.33%     37.56% |       12742     12.51%     50.07% |       12764     12.53%     62.61% |       12508     12.28%     74.89% |       12644     12.42%     87.31% |       12926     12.69%    100.00% (Unspecified)
system.caches.L2Cache_Controller.Ack_all::total       101832                       (Unspecified)
system.caches.L2Cache_Controller.Unblock |        7765     12.80%     12.80% |        7544     12.44%     25.24% |        7354     12.13%     37.37% |        7326     12.08%     49.45% |        7529     12.41%     61.86% |        7388     12.18%     74.04% |        7446     12.28%     86.32% |        8295     13.68%    100.00% (Unspecified)
system.caches.L2Cache_Controller.Unblock::total        60647                       (Unspecified)
system.caches.L2Cache_Controller.Exclusive_Unblock |      233245     12.52%     12.52% |      233916     12.55%     25.07% |      232291     12.47%     37.54% |      232398     12.47%     50.01% |      232622     12.48%     62.50% |      232703     12.49%     74.98% |      232762     12.49%     87.48% |      233345     12.52%    100.00% (Unspecified)
system.caches.L2Cache_Controller.Exclusive_Unblock::total      1863282                       (Unspecified)
system.caches.L2Cache_Controller.NP.L1_GET_INSTR |         430     12.77%     12.77% |         430     12.77%     25.54% |         422     12.53%     38.08% |         381     11.32%     49.39% |         426     12.65%     62.04% |         421     12.50%     74.55% |         430     12.77%     87.32% |         427     12.68%    100.00% (Unspecified)
system.caches.L2Cache_Controller.NP.L1_GET_INSTR::total         3367                       (Unspecified)
system.caches.L2Cache_Controller.NP.L1_GETS |      217558     12.51%     12.51% |      217408     12.50%     25.01% |      217372     12.50%     37.51% |      217296     12.50%     50.01% |      217302     12.50%     62.50% |      217373     12.50%     75.00% |      217304     12.50%     87.50% |      217380     12.50%    100.00% (Unspecified)
system.caches.L2Cache_Controller.NP.L1_GETS::total      1738993                       (Unspecified)
system.caches.L2Cache_Controller.NP.L1_GETX |         285     13.93%     13.93% |         260     12.71%     26.64% |         144      7.04%     33.68% |         211     10.31%     43.99% |         230     11.24%     55.23% |         338     16.52%     71.75% |         256     12.51%     84.26% |         322     15.74%    100.00% (Unspecified)
system.caches.L2Cache_Controller.NP.L1_GETX::total         2046                       (Unspecified)
system.caches.L2Cache_Controller.SS.L1_GET_INSTR |        1984     13.90%     13.90% |        2536     17.77%     31.68% |        1607     11.26%     42.94% |        1389      9.73%     52.67% |        1620     11.35%     64.03% |        1582     11.09%     75.11% |        1594     11.17%     86.28% |        1957     13.72%    100.00% (Unspecified)
system.caches.L2Cache_Controller.SS.L1_GET_INSTR::total        14269                       (Unspecified)
system.caches.L2Cache_Controller.SS.L1_GETS |       24225     12.85%     12.85% |       23318     12.37%     25.23% |       23923     12.69%     37.92% |       22965     12.19%     50.11% |       22926     12.17%     62.27% |       23433     12.43%     74.71% |       23423     12.43%     87.14% |       24240     12.86%    100.00% (Unspecified)
system.caches.L2Cache_Controller.SS.L1_GETS::total       188453                       (Unspecified)
system.caches.L2Cache_Controller.SS.L1_GETX |          26     59.09%     59.09% |           0      0.00%     59.09% |           0      0.00%     59.09% |           0      0.00%     59.09% |           3      6.82%     65.91% |           1      2.27%     68.18% |          10     22.73%     90.91% |           4      9.09%    100.00% (Unspecified)
system.caches.L2Cache_Controller.SS.L1_GETX::total           44                       (Unspecified)
system.caches.L2Cache_Controller.SS.L1_UPGRADE |        4045     12.42%     12.42% |        4115     12.63%     25.05% |        4004     12.29%     37.34% |        3959     12.15%     49.49% |        4044     12.41%     61.90% |        4028     12.36%     74.26% |        4120     12.65%     86.91% |        4265     13.09%    100.00% (Unspecified)
system.caches.L2Cache_Controller.SS.L1_UPGRADE::total        32580                       (Unspecified)
system.caches.L2Cache_Controller.SS.L2_Replacement |        1764     12.52%     12.52% |        1765     12.53%     25.05% |        1750     12.42%     37.47% |        1741     12.36%     49.83% |        1778     12.62%     62.45% |        1762     12.51%     74.96% |        1755     12.46%     87.41% |        1773     12.59%    100.00% (Unspecified)
system.caches.L2Cache_Controller.SS.L2_Replacement::total        14088                       (Unspecified)
system.caches.L2Cache_Controller.SS.L2_Replacement_clean |        3063     13.48%     13.48% |        2769     12.18%     25.66% |        2762     12.15%     37.81% |        2739     12.05%     49.87% |        2845     12.52%     62.38% |        2742     12.06%     74.45% |        2717     11.95%     86.40% |        3090     13.60%    100.00% (Unspecified)
system.caches.L2Cache_Controller.SS.L2_Replacement_clean::total        22727                       (Unspecified)
system.caches.L2Cache_Controller.M.L1_GET_INSTR |           0      0.00%      0.00% |           2     22.22%     22.22% |           1     11.11%     33.33% |           0      0.00%     33.33% |           0      0.00%     33.33% |           1     11.11%     44.44% |           3     33.33%     77.78% |           2     22.22%    100.00% (Unspecified)
system.caches.L2Cache_Controller.M.L1_GET_INSTR::total            9                       (Unspecified)
system.caches.L2Cache_Controller.M.L1_GETS |       11097     12.69%     12.69% |       11105     12.70%     25.40% |       10743     12.29%     37.68% |       10824     12.38%     50.07% |       10887     12.45%     62.52% |       10660     12.19%     74.71% |       10935     12.51%     87.22% |       11172     12.78%    100.00% (Unspecified)
system.caches.L2Cache_Controller.M.L1_GETS::total        87423                       (Unspecified)
system.caches.L2Cache_Controller.M.L1_GETX |         246     19.77%     19.77% |         150     12.06%     31.83% |          38      3.05%     34.89% |          95      7.64%     42.52% |         152     12.22%     54.74% |         248     19.94%     74.68% |         141     11.33%     86.01% |         174     13.99%    100.00% (Unspecified)
system.caches.L2Cache_Controller.M.L1_GETX::total         1244                       (Unspecified)
system.caches.L2Cache_Controller.M.L2_Replacement |       38629     12.50%     12.50% |       38523     12.47%     24.97% |       38745     12.54%     37.51% |       38610     12.49%     50.00% |       38539     12.47%     62.47% |       38673     12.52%     74.99% |       38711     12.53%     87.51% |       38580     12.49%    100.00% (Unspecified)
system.caches.L2Cache_Controller.M.L2_Replacement::total       309010                       (Unspecified)
system.caches.L2Cache_Controller.M.L2_Replacement_clean |      148970     12.49%     12.49% |      149266     12.51%     25.00% |      149233     12.51%     37.51% |      149004     12.49%     50.00% |      149124     12.50%     62.50% |      149285     12.51%     75.02% |      149076     12.50%     87.52% |      148924     12.48%    100.00% (Unspecified)
system.caches.L2Cache_Controller.M.L2_Replacement_clean::total      1192882                       (Unspecified)
system.caches.L2Cache_Controller.MT.L1_GETS |        7765     12.80%     12.80% |        7544     12.44%     25.24% |        7354     12.13%     37.37% |        7326     12.08%     49.45% |        7529     12.41%     61.86% |        7388     12.18%     74.04% |        7446     12.28%     86.32% |        8295     13.68%    100.00% (Unspecified)
system.caches.L2Cache_Controller.MT.L1_GETS::total        60647                       (Unspecified)
system.caches.L2Cache_Controller.MT.L1_GETX |          17      1.59%      1.59% |         896     83.74%     85.33% |           4      0.37%     85.70% |          25      2.34%     88.04% |          14      1.31%     89.35% |          61      5.70%     95.05% |           8      0.75%     95.79% |          45      4.21%    100.00% (Unspecified)
system.caches.L2Cache_Controller.MT.L1_GETX::total         1070                       (Unspecified)
system.caches.L2Cache_Controller.MT.L1_PUTX |      211284     12.51%     12.51% |      211351     12.51%     25.02% |      211051     12.50%     37.52% |      210964     12.49%     50.01% |      211043     12.50%     62.51% |      211151     12.50%     75.01% |      211107     12.50%     87.51% |      211011     12.49%    100.00% (Unspecified)
system.caches.L2Cache_Controller.MT.L1_PUTX::total      1688962                       (Unspecified)
system.caches.L2Cache_Controller.MT.L2_Replacement |         184     14.73%     14.73% |         167     13.37%     28.10% |          96      7.69%     35.79% |         149     11.93%     47.72% |         141     11.29%     59.01% |         181     14.49%     73.50% |         157     12.57%     86.07% |         174     13.93%    100.00% (Unspecified)
system.caches.L2Cache_Controller.MT.L2_Replacement::total         1249                       (Unspecified)
system.caches.L2Cache_Controller.MT.L2_Replacement_clean |        9279     12.65%     12.65% |        9224     12.57%     25.22% |        8968     12.22%     37.44% |        9261     12.62%     50.06% |        9147     12.47%     62.52% |        9105     12.41%     74.93% |        9190     12.52%     87.46% |        9204     12.54%    100.00% (Unspecified)
system.caches.L2Cache_Controller.MT.L2_Replacement_clean::total        73378                       (Unspecified)
system.caches.L2Cache_Controller.M_I.L1_GET_INSTR |           0      0.00%      0.00% |           0      0.00%      0.00% |          10     30.30%     30.30% |           3      9.09%     39.39% |          11     33.33%     72.73% |           0      0.00%     72.73% |           7     21.21%     93.94% |           2      6.06%    100.00% (Unspecified)
system.caches.L2Cache_Controller.M_I.L1_GET_INSTR::total           33                       (Unspecified)
system.caches.L2Cache_Controller.M_I.L1_GETS |          25     49.02%     49.02% |          11     21.57%     70.59% |           1      1.96%     72.55% |           1      1.96%     74.51% |           0      0.00%     74.51% |           0      0.00%     74.51% |           0      0.00%     74.51% |          13     25.49%    100.00% (Unspecified)
system.caches.L2Cache_Controller.M_I.L1_GETS::total           51                       (Unspecified)
system.caches.L2Cache_Controller.M_I.Mem_Ack |      201889     12.51%     12.51% |      201714     12.50%     25.02% |      201554     12.49%     37.51% |      201504     12.49%     50.00% |      201574     12.49%     62.49% |      201748     12.51%     75.00% |      201606     12.50%     87.50% |      201745     12.50%    100.00% (Unspecified)
system.caches.L2Cache_Controller.M_I.Mem_Ack::total      1613334                       (Unspecified)
system.caches.L2Cache_Controller.MT_I.WB_Data |         133     15.72%     15.72% |         105     12.41%     28.13% |          51      6.03%     34.16% |          94     11.11%     45.27% |          90     10.64%     55.91% |         140     16.55%     72.46% |         102     12.06%     84.52% |         131     15.48%    100.00% (Unspecified)
system.caches.L2Cache_Controller.MT_I.WB_Data::total          846                       (Unspecified)
system.caches.L2Cache_Controller.MT_I.Ack_all |          51     12.66%     12.66% |          62     15.38%     28.04% |          45     11.17%     39.21% |          55     13.65%     52.85% |          51     12.66%     65.51% |          41     10.17%     75.68% |          55     13.65%     89.33% |          43     10.67%    100.00% (Unspecified)
system.caches.L2Cache_Controller.MT_I.Ack_all::total          403                       (Unspecified)
system.caches.L2Cache_Controller.MCT_I.WB_Data |        1185     13.52%     13.52% |        1102     12.57%     26.10% |         967     11.03%     37.13% |        1054     12.03%     49.16% |        1057     12.06%     61.22% |        1142     13.03%     74.25% |        1073     12.24%     86.49% |        1184     13.51%    100.00% (Unspecified)
system.caches.L2Cache_Controller.MCT_I.WB_Data::total         8764                       (Unspecified)
system.caches.L2Cache_Controller.MCT_I.Ack_all |        8094     12.53%     12.53% |        8122     12.57%     25.10% |        8001     12.38%     37.48% |        8207     12.70%     50.18% |        8090     12.52%     62.70% |        7963     12.32%     75.03% |        8117     12.56%     87.59% |        8020     12.41%    100.00% (Unspecified)
system.caches.L2Cache_Controller.MCT_I.Ack_all::total        64614                       (Unspecified)
system.caches.L2Cache_Controller.I_I.Ack |        6345     13.48%     13.48% |        5831     12.38%     25.86% |        5844     12.41%     38.27% |        5510     11.70%     49.98% |        5921     12.58%     62.55% |        5730     12.17%     74.72% |        5637     11.97%     86.69% |        6265     13.31%    100.00% (Unspecified)
system.caches.L2Cache_Controller.I_I.Ack::total        47083                       (Unspecified)
system.caches.L2Cache_Controller.I_I.Ack_all |        3063     13.48%     13.48% |        2769     12.18%     25.66% |        2762     12.15%     37.81% |        2739     12.05%     49.87% |        2845     12.52%     62.38% |        2742     12.06%     74.45% |        2717     11.95%     86.40% |        3090     13.60%    100.00% (Unspecified)
system.caches.L2Cache_Controller.I_I.Ack_all::total        22727                       (Unspecified)
system.caches.L2Cache_Controller.S_I.Ack |        4424     12.48%     12.48% |        4527     12.77%     25.24% |        4361     12.30%     37.54% |        4433     12.50%     50.04% |        4385     12.37%     62.41% |        4447     12.54%     74.95% |        4429     12.49%     87.44% |        4455     12.56%    100.00% (Unspecified)
system.caches.L2Cache_Controller.S_I.Ack::total        35461                       (Unspecified)
system.caches.L2Cache_Controller.S_I.Ack_all |        1764     12.52%     12.52% |        1765     12.53%     25.05% |        1750     12.42%     37.47% |        1741     12.36%     49.83% |        1778     12.62%     62.45% |        1762     12.51%     74.96% |        1755     12.46%     87.41% |        1773     12.59%    100.00% (Unspecified)
system.caches.L2Cache_Controller.S_I.Ack_all::total        14088                       (Unspecified)
system.caches.L2Cache_Controller.ISS.L1_GETS |          29     24.79%     24.79% |          18     15.38%     40.17% |          14     11.97%     52.14% |          12     10.26%     62.39% |          10      8.55%     70.94% |           6      5.13%     76.07% |          11      9.40%     85.47% |          17     14.53%    100.00% (Unspecified)
system.caches.L2Cache_Controller.ISS.L1_GETS::total          117                       (Unspecified)
system.caches.L2Cache_Controller.ISS.Mem_Data |      217529     12.51%     12.51% |      217390     12.50%     25.01% |      217358     12.50%     37.51% |      217284     12.50%     50.01% |      217292     12.50%     62.50% |      217367     12.50%     75.00% |      217292     12.50%     87.50% |      217363     12.50%    100.00% (Unspecified)
system.caches.L2Cache_Controller.ISS.Mem_Data::total      1738875                       (Unspecified)
system.caches.L2Cache_Controller.IS.L1_GET_INSTR |         177     11.54%     11.54% |         149      9.71%     21.25% |         187     12.19%     33.44% |         173     11.28%     44.72% |         243     15.84%     60.56% |         208     13.56%     74.12% |         232     15.12%     89.24% |         165     10.76%    100.00% (Unspecified)
system.caches.L2Cache_Controller.IS.L1_GET_INSTR::total         1534                       (Unspecified)
system.caches.L2Cache_Controller.IS.L1_GETS |          63     28.00%     28.00% |          50     22.22%     50.22% |          11      4.89%     55.11% |          15      6.67%     61.78% |          13      5.78%     67.56% |           9      4.00%     71.56% |           8      3.56%     75.11% |          56     24.89%    100.00% (Unspecified)
system.caches.L2Cache_Controller.IS.L1_GETS::total          225                       (Unspecified)
system.caches.L2Cache_Controller.IS.Mem_Data |         459     13.17%     13.17% |         448     12.86%     26.03% |         436     12.51%     38.55% |         393     11.28%     49.83% |         436     12.51%     62.34% |         427     12.26%     74.60% |         441     12.66%     87.26% |         444     12.74%    100.00% (Unspecified)
system.caches.L2Cache_Controller.IS.Mem_Data::total         3484                       (Unspecified)
system.caches.L2Cache_Controller.IM.L1_GETX |           0      0.00%      0.00% |          11    100.00%    100.00% |           0      0.00%    100.00% |           0      0.00%    100.00% |           0      0.00%    100.00% |           0      0.00%    100.00% |           0      0.00%    100.00% |           0      0.00%    100.00% (Unspecified)
system.caches.L2Cache_Controller.IM.L1_GETX::total           11                       (Unspecified)
system.caches.L2Cache_Controller.IM.Mem_Data |         285     13.93%     13.93% |         260     12.71%     26.64% |         144      7.04%     33.68% |         211     10.31%     43.99% |         230     11.24%     55.23% |         338     16.52%     71.75% |         256     12.51%     84.26% |         322     15.74%    100.00% (Unspecified)
system.caches.L2Cache_Controller.IM.Mem_Data::total         2046                       (Unspecified)
system.caches.L2Cache_Controller.SS_MB.L1_GETS |          37     44.58%     44.58% |           2      2.41%     46.99% |           0      0.00%     46.99% |           0      0.00%     46.99% |          26     31.33%     78.31% |           0      0.00%     78.31% |           1      1.20%     79.52% |          17     20.48%    100.00% (Unspecified)
system.caches.L2Cache_Controller.SS_MB.L1_GETS::total           83                       (Unspecified)
system.caches.L2Cache_Controller.SS_MB.L1_GETX |           2     66.67%     66.67% |           0      0.00%     66.67% |           0      0.00%     66.67% |           0      0.00%     66.67% |           0      0.00%     66.67% |           0      0.00%     66.67% |           0      0.00%     66.67% |           1     33.33%    100.00% (Unspecified)
system.caches.L2Cache_Controller.SS_MB.L1_GETX::total            3                       (Unspecified)
system.caches.L2Cache_Controller.SS_MB.L1_UPGRADE |           1    100.00%    100.00% |           0      0.00%    100.00% |           0      0.00%    100.00% |           0      0.00%    100.00% |           0      0.00%    100.00% |           0      0.00%    100.00% |           0      0.00%    100.00% |           0      0.00%    100.00% (Unspecified)
system.caches.L2Cache_Controller.SS_MB.L1_UPGRADE::total            1                       (Unspecified)
system.caches.L2Cache_Controller.SS_MB.Exclusive_Unblock |        4071     12.48%     12.48% |        4115     12.61%     25.09% |        4004     12.27%     37.37% |        3959     12.14%     49.50% |        4047     12.40%     61.91% |        4029     12.35%     74.26% |        4130     12.66%     86.91% |        4269     13.09%    100.00% (Unspecified)
system.caches.L2Cache_Controller.SS_MB.Exclusive_Unblock::total        32624                       (Unspecified)
system.caches.L2Cache_Controller.MT_MB.L1_GETS |          11     14.86%     14.86% |          15     20.27%     35.14% |          17     22.97%     58.11% |           5      6.76%     64.86% |           1      1.35%     66.22% |           1      1.35%     67.57% |           5      6.76%     74.32% |          19     25.68%    100.00% (Unspecified)
system.caches.L2Cache_Controller.MT_MB.L1_GETS::total           74                       (Unspecified)
system.caches.L2Cache_Controller.MT_MB.L1_GETX |           1      0.74%      0.74% |          80     59.26%     60.00% |           0      0.00%     60.00% |           0      0.00%     60.00% |           0      0.00%     60.00% |           0      0.00%     60.00% |           0      0.00%     60.00% |          54     40.00%    100.00% (Unspecified)
system.caches.L2Cache_Controller.MT_MB.L1_GETX::total          135                       (Unspecified)
system.caches.L2Cache_Controller.MT_MB.Exclusive_Unblock |      229174     12.52%     12.52% |      229801     12.55%     25.07% |      228287     12.47%     37.54% |      228439     12.48%     50.02% |      228575     12.49%     62.51% |      228674     12.49%     75.00% |      228632     12.49%     87.49% |      229076     12.51%    100.00% (Unspecified)
system.caches.L2Cache_Controller.MT_MB.Exclusive_Unblock::total      1830658                       (Unspecified)
system.caches.L2Cache_Controller.MT_IIB.L1_GETS |          45     22.84%     22.84% |          13      6.60%     29.44% |          17      8.63%     38.07% |           4      2.03%     40.10% |          35     17.77%     57.87% |          12      6.09%     63.96% |          15      7.61%     71.57% |          56     28.43%    100.00% (Unspecified)
system.caches.L2Cache_Controller.MT_IIB.L1_GETS::total          197                       (Unspecified)
system.caches.L2Cache_Controller.MT_IIB.L1_GETX |           3    100.00%    100.00% |           0      0.00%    100.00% |           0      0.00%    100.00% |           0      0.00%    100.00% |           0      0.00%    100.00% |           0      0.00%    100.00% |           0      0.00%    100.00% |           0      0.00%    100.00% (Unspecified)
system.caches.L2Cache_Controller.MT_IIB.L1_GETX::total            3                       (Unspecified)
system.caches.L2Cache_Controller.MT_IIB.WB_Data |        1603     12.72%     12.72% |        1556     12.35%     25.08% |        1508     11.97%     37.05% |        1530     12.14%     49.19% |        1584     12.57%     61.76% |        1519     12.06%     73.82% |        1553     12.33%     86.15% |        1745     13.85%    100.00% (Unspecified)
system.caches.L2Cache_Controller.MT_IIB.WB_Data::total        12598                       (Unspecified)
system.caches.L2Cache_Controller.MT_IIB.WB_Data_clean |        6161     12.83%     12.83% |        5988     12.47%     25.29% |        5846     12.17%     37.46% |        5790     12.05%     49.52% |        5938     12.36%     61.88% |        5869     12.22%     74.10% |        5890     12.26%     86.36% |        6550     13.64%    100.00% (Unspecified)
system.caches.L2Cache_Controller.MT_IIB.WB_Data_clean::total        48032                       (Unspecified)
system.caches.L2Cache_Controller.MT_IIB.Unblock |           1      5.88%      5.88% |           0      0.00%      5.88% |           0      0.00%      5.88% |           6     35.29%     41.18% |           7     41.18%     82.35% |           0      0.00%     82.35% |           3     17.65%    100.00% |           0      0.00%    100.00% (Unspecified)
system.caches.L2Cache_Controller.MT_IIB.Unblock::total           17                       (Unspecified)
system.caches.L2Cache_Controller.MT_IB.WB_Data |           0      0.00%      0.00% |           0      0.00%      0.00% |           0      0.00%      0.00% |           6     37.50%     37.50% |           7     43.75%     81.25% |           0      0.00%     81.25% |           3     18.75%    100.00% |           0      0.00%    100.00% (Unspecified)
system.caches.L2Cache_Controller.MT_IB.WB_Data::total           16                       (Unspecified)
system.caches.L2Cache_Controller.MT_IB.WB_Data_clean |           1    100.00%    100.00% |           0      0.00%    100.00% |           0      0.00%    100.00% |           0      0.00%    100.00% |           0      0.00%    100.00% |           0      0.00%    100.00% |           0      0.00%    100.00% |           0      0.00%    100.00% (Unspecified)
system.caches.L2Cache_Controller.MT_IB.WB_Data_clean::total            1                       (Unspecified)
system.caches.L2Cache_Controller.MT_SB.L1_GETS |           8     44.44%     44.44% |           2     11.11%     55.56% |           2     11.11%     66.67% |           2     11.11%     77.78% |           2     11.11%     88.89% |           0      0.00%     88.89% |           0      0.00%     88.89% |           2     11.11%    100.00% (Unspecified)
system.caches.L2Cache_Controller.MT_SB.L1_GETS::total           18                       (Unspecified)
system.caches.L2Cache_Controller.MT_SB.L1_UPGRADE |           1     12.50%     12.50% |           2     25.00%     37.50% |           0      0.00%     37.50% |           1     12.50%     50.00% |           1     12.50%     62.50% |           1     12.50%     75.00% |           1     12.50%     87.50% |           1     12.50%    100.00% (Unspecified)
system.caches.L2Cache_Controller.MT_SB.L1_UPGRADE::total            8                       (Unspecified)
system.caches.L2Cache_Controller.MT_SB.Unblock |        7764     12.81%     12.81% |        7544     12.44%     25.25% |        7354     12.13%     37.38% |        7320     12.07%     49.45% |        7522     12.41%     61.86% |        7388     12.19%     74.04% |        7443     12.28%     86.32% |        8295     13.68%    100.00% (Unspecified)
system.caches.L2Cache_Controller.MT_SB.Unblock::total        60630                       (Unspecified)
system.caches.RequestType.LD.latency_hist_seqr::bucket_size         1024                       (Unspecified)
system.caches.RequestType.LD.latency_hist_seqr::max_bucket        10239                       (Unspecified)
system.caches.RequestType.LD.latency_hist_seqr::samples    105408688                       (Unspecified)
system.caches.RequestType.LD.latency_hist_seqr::mean    13.134601                       (Unspecified)
system.caches.RequestType.LD.latency_hist_seqr::gmean     1.124094                       (Unspecified)
system.caches.RequestType.LD.latency_hist_seqr::stdev   106.800826                       (Unspecified)
system.caches.RequestType.LD.latency_hist_seqr |   105122536     99.73%     99.73% |      258138      0.24%     99.97% |       26088      0.02%    100.00% |        1770      0.00%    100.00% |         127      0.00%    100.00% |          21      0.00%    100.00% |           8      0.00%    100.00% |           0      0.00%    100.00% |           0      0.00%    100.00% |           0      0.00%    100.00% (Unspecified)
system.caches.RequestType.LD.latency_hist_seqr::total    105408688                       (Unspecified)
system.caches.RequestType.LD.hit_latency_hist_seqr::bucket_size            1                       (Unspecified)
system.caches.RequestType.LD.hit_latency_hist_seqr::max_bucket            9                       (Unspecified)
system.caches.RequestType.LD.hit_latency_hist_seqr::samples    103332831                       (Unspecified)
system.caches.RequestType.LD.hit_latency_hist_seqr::mean     1.001905                       (Unspecified)
system.caches.RequestType.LD.hit_latency_hist_seqr::gmean     1.001321                       (Unspecified)
system.caches.RequestType.LD.hit_latency_hist_seqr::stdev     0.043600                       (Unspecified)
system.caches.RequestType.LD.hit_latency_hist_seqr |           0      0.00%      0.00% |   103136036     99.81%     99.81% |      196790      0.19%    100.00% |           5      0.00%    100.00% |           0      0.00%    100.00% |           0      0.00%    100.00% |           0      0.00%    100.00% |           0      0.00%    100.00% |           0      0.00%    100.00% |           0      0.00%    100.00% (Unspecified)
system.caches.RequestType.LD.hit_latency_hist_seqr::total    103332831                       (Unspecified)
system.caches.RequestType.LD.miss_latency_hist_seqr::bucket_size         1024                       (Unspecified)
system.caches.RequestType.LD.miss_latency_hist_seqr::max_bucket        10239                       (Unspecified)
system.caches.RequestType.LD.miss_latency_hist_seqr::samples      2075857                       (Unspecified)
system.caches.RequestType.LD.miss_latency_hist_seqr::mean   617.080751                       (Unspecified)
system.caches.RequestType.LD.miss_latency_hist_seqr::gmean   355.740562                       (Unspecified)
system.caches.RequestType.LD.miss_latency_hist_seqr::stdev   455.105564                       (Unspecified)
system.caches.RequestType.LD.miss_latency_hist_seqr |     1789705     86.22%     86.22% |      258138     12.44%     98.65% |       26088      1.26%     99.91% |        1770      0.09%     99.99% |         127      0.01%    100.00% |          21      0.00%    100.00% |           8      0.00%    100.00% |           0      0.00%    100.00% |           0      0.00%    100.00% |           0      0.00%    100.00% (Unspecified)
system.caches.RequestType.LD.miss_latency_hist_seqr::total      2075857                       (Unspecified)
system.caches.RequestType.ST.latency_hist_seqr::bucket_size         1024                       (Unspecified)
system.caches.RequestType.ST.latency_hist_seqr::max_bucket        10239                       (Unspecified)
system.caches.RequestType.ST.latency_hist_seqr::samples      2547974                       (Unspecified)
system.caches.RequestType.ST.latency_hist_seqr::mean     2.156912                       (Unspecified)
system.caches.RequestType.ST.latency_hist_seqr::gmean     1.566022                       (Unspecified)
system.caches.RequestType.ST.latency_hist_seqr::stdev    16.763178                       (Unspecified)
system.caches.RequestType.ST.latency_hist_seqr |     2547813     99.99%     99.99% |         147      0.01%    100.00% |          13      0.00%    100.00% |           0      0.00%    100.00% |           0      0.00%    100.00% |           1      0.00%    100.00% |           0      0.00%    100.00% |           0      0.00%    100.00% |           0      0.00%    100.00% |           0      0.00%    100.00% (Unspecified)
system.caches.RequestType.ST.latency_hist_seqr::total      2547974                       (Unspecified)
system.caches.RequestType.ST.hit_latency_hist_seqr::bucket_size          256                       (Unspecified)
system.caches.RequestType.ST.hit_latency_hist_seqr::max_bucket         2559                       (Unspecified)
system.caches.RequestType.ST.hit_latency_hist_seqr::samples      2513689                       (Unspecified)
system.caches.RequestType.ST.hit_latency_hist_seqr::mean     1.601304                       (Unspecified)
system.caches.RequestType.ST.hit_latency_hist_seqr::gmean     1.510321                       (Unspecified)
system.caches.RequestType.ST.hit_latency_hist_seqr::stdev     2.206853                       (Unspecified)
system.caches.RequestType.ST.hit_latency_hist_seqr |     2513660    100.00%    100.00% |          17      0.00%    100.00% |           6      0.00%    100.00% |           4      0.00%    100.00% |           1      0.00%    100.00% |           0      0.00%    100.00% |           1      0.00%    100.00% |           0      0.00%    100.00% |           0      0.00%    100.00% |           0      0.00%    100.00% (Unspecified)
system.caches.RequestType.ST.hit_latency_hist_seqr::total      2513689                       (Unspecified)
system.caches.RequestType.ST.miss_latency_hist_seqr::bucket_size         1024                       (Unspecified)
system.caches.RequestType.ST.miss_latency_hist_seqr::max_bucket        10239                       (Unspecified)
system.caches.RequestType.ST.miss_latency_hist_seqr::samples        34285                       (Unspecified)
system.caches.RequestType.ST.miss_latency_hist_seqr::mean    42.892694                       (Unspecified)
system.caches.RequestType.ST.miss_latency_hist_seqr::gmean    22.282679                       (Unspecified)
system.caches.RequestType.ST.miss_latency_hist_seqr::stdev   137.276901                       (Unspecified)
system.caches.RequestType.ST.miss_latency_hist_seqr |       34126     99.54%     99.54% |         145      0.42%     99.96% |          13      0.04%    100.00% |           0      0.00%    100.00% |           0      0.00%    100.00% |           1      0.00%    100.00% |           0      0.00%    100.00% |           0      0.00%    100.00% |           0      0.00%    100.00% |           0      0.00%    100.00% (Unspecified)
system.caches.RequestType.ST.miss_latency_hist_seqr::total        34285                       (Unspecified)
system.caches.RequestType.IFETCH.latency_hist_seqr::bucket_size          256                       (Unspecified)
system.caches.RequestType.IFETCH.latency_hist_seqr::max_bucket         2559                       (Unspecified)
system.caches.RequestType.IFETCH.latency_hist_seqr::samples    111448581                       (Unspecified)
system.caches.RequestType.IFETCH.latency_hist_seqr::mean     1.016175                       (Unspecified)
system.caches.RequestType.IFETCH.latency_hist_seqr::gmean     1.000581                       (Unspecified)
system.caches.RequestType.IFETCH.latency_hist_seqr::stdev     2.628903                       (Unspecified)
system.caches.RequestType.IFETCH.latency_hist_seqr |   111445909    100.00%    100.00% |        2211      0.00%    100.00% |         282      0.00%    100.00% |          57      0.00%    100.00% |          37      0.00%    100.00% |          48      0.00%    100.00% |          30      0.00%    100.00% |           5      0.00%    100.00% |           1      0.00%    100.00% |           1      0.00%    100.00% (Unspecified)
system.caches.RequestType.IFETCH.latency_hist_seqr::total    111448581                       (Unspecified)
system.caches.RequestType.IFETCH.hit_latency_hist_seqr::bucket_size            1                       (Unspecified)
system.caches.RequestType.IFETCH.hit_latency_hist_seqr::max_bucket            9                       (Unspecified)
system.caches.RequestType.IFETCH.hit_latency_hist_seqr::samples    111429402                       (Unspecified)
system.caches.RequestType.IFETCH.hit_latency_hist_seqr::mean     1.000000                       (Unspecified)
system.caches.RequestType.IFETCH.hit_latency_hist_seqr::gmean     1.000000                       (Unspecified)
system.caches.RequestType.IFETCH.hit_latency_hist_seqr::stdev     0.000328                       (Unspecified)
system.caches.RequestType.IFETCH.hit_latency_hist_seqr |           0      0.00%      0.00% |   111429390    100.00%    100.00% |          12      0.00%    100.00% |           0      0.00%    100.00% |           0      0.00%    100.00% |           0      0.00%    100.00% |           0      0.00%    100.00% |           0      0.00%    100.00% |           0      0.00%    100.00% |           0      0.00%    100.00% (Unspecified)
system.caches.RequestType.IFETCH.hit_latency_hist_seqr::total    111429402                       (Unspecified)
system.caches.RequestType.IFETCH.miss_latency_hist_seqr::bucket_size          256                       (Unspecified)
system.caches.RequestType.IFETCH.miss_latency_hist_seqr::max_bucket         2559                       (Unspecified)
system.caches.RequestType.IFETCH.miss_latency_hist_seqr::samples        19179                       (Unspecified)
system.caches.RequestType.IFETCH.miss_latency_hist_seqr::mean    94.991084                       (Unspecified)
system.caches.RequestType.IFETCH.miss_latency_hist_seqr::gmean    29.192358                       (Unspecified)
system.caches.RequestType.IFETCH.miss_latency_hist_seqr::stdev   177.000568                       (Unspecified)
system.caches.RequestType.IFETCH.miss_latency_hist_seqr |       16507     86.07%     86.07% |        2211     11.53%     97.60% |         282      1.47%     99.07% |          57      0.30%     99.36% |          37      0.19%     99.56% |          48      0.25%     99.81% |          30      0.16%     99.96% |           5      0.03%     99.99% |           1      0.01%     99.99% |           1      0.01%    100.00% (Unspecified)
system.caches.RequestType.IFETCH.miss_latency_hist_seqr::total        19179                       (Unspecified)
system.caches.RequestType.RMW_Read.latency_hist_seqr::bucket_size          512                       (Unspecified)
system.caches.RequestType.RMW_Read.latency_hist_seqr::max_bucket         5119                       (Unspecified)
system.caches.RequestType.RMW_Read.latency_hist_seqr::samples        12841                       (Unspecified)
system.caches.RequestType.RMW_Read.latency_hist_seqr::mean    31.336189                       (Unspecified)
system.caches.RequestType.RMW_Read.latency_hist_seqr::gmean     1.614672                       (Unspecified)
system.caches.RequestType.RMW_Read.latency_hist_seqr::stdev   166.733309                       (Unspecified)
system.caches.RequestType.RMW_Read.latency_hist_seqr |       12487     97.24%     97.24% |         254      1.98%     99.22% |          72      0.56%     99.78% |          20      0.16%     99.94% |           4      0.03%     99.97% |           3      0.02%     99.99% |           1      0.01%    100.00% |           0      0.00%    100.00% |           0      0.00%    100.00% |           0      0.00%    100.00% (Unspecified)
system.caches.RequestType.RMW_Read.latency_hist_seqr::total        12841                       (Unspecified)
system.caches.RequestType.RMW_Read.hit_latency_hist_seqr::bucket_size          512                       (Unspecified)
system.caches.RequestType.RMW_Read.hit_latency_hist_seqr::max_bucket         5119                       (Unspecified)
system.caches.RequestType.RMW_Read.hit_latency_hist_seqr::samples        11829                       (Unspecified)
system.caches.RequestType.RMW_Read.hit_latency_hist_seqr::mean     6.657283                       (Unspecified)
[...]
system.o3Cpu7.iew.predictedTakenIncorrect       375281                       # Number of branches that were predicted taken incorrectly (Count)
system.o3Cpu7.iew.predictedNotTakenIncorrect       360738                       # Number of branches that were predicted not taken incorrectly (Count)
system.o3Cpu7.iew.branchMispredicts            736019                       # Number of branch mispredicts detected at execute (Count)
system.o3Cpu7.iew.instsToCommit              90581370                       # Cumulative count of insts sent to commit (Count)
system.o3Cpu7.iew.writebackCount             90056107                       # Cumulative count of insts written-back (Count)
system.o3Cpu7.iew.producerInst               76602953                       # Number of instructions producing a value (Count)
system.o3Cpu7.iew.consumerInst              108128820                       # Number of instructions consuming a value (Count)
system.o3Cpu7.iew.wbRate                     0.755438                       # Insts written-back per cycle ((Count/Cycle))
system.o3Cpu7.iew.wbFanout                   0.708442                       # Average fanout of values written-back ((Count/Count))
system.o3Cpu7.interrupts.clk_domain.clock         3200                       # Clock period in ticks (Tick)
system.o3Cpu7.lsq0.forwLoads                   161179                       # Number of loads that had data forwarded from stores (Count)
system.o3Cpu7.lsq0.squashedLoads             12945034                       # Number of loads squashed (Count)
system.o3Cpu7.lsq0.ignoredResponses                28                       # Number of memory responses ignored because the instruction is squashed (Count)
system.o3Cpu7.lsq0.memOrderViolation              439                       # Number of memory ordering violations (Count)
system.o3Cpu7.lsq0.squashedStores              860529                       # Number of stores squashed (Count)
system.o3Cpu7.lsq0.rescheduledLoads                28                       # Number of loads that were rescheduled (Count)
system.o3Cpu7.lsq0.blockedByCache              348857                       # Number of times an access to memory failed due to the cache being blocked (Count)
system.o3Cpu7.lsq0.loadToUse::samples         7633032                       # Distribution of cycle latency between the first time a load is issued and its completion (Unspecified)
system.o3Cpu7.lsq0.loadToUse::mean          49.578398                       # Distribution of cycle latency between the first time a load is issued and its completion (Unspecified)
system.o3Cpu7.lsq0.loadToUse::stdev        179.587673                       # Distribution of cycle latency between the first time a load is issued and its completion (Unspecified)
system.o3Cpu7.lsq0.loadToUse::0-9             6876340     90.09%     90.09% # Distribution of cycle latency between the first time a load is issued and its completion (Unspecified)
system.o3Cpu7.lsq0.loadToUse::10-19             36348      0.48%     90.56% # Distribution of cycle latency between the first time a load is issued and its completion (Unspecified)
system.o3Cpu7.lsq0.loadToUse::20-29             19656      0.26%     90.82% # Distribution of cycle latency between the first time a load is issued and its completion (Unspecified)
system.o3Cpu7.lsq0.loadToUse::30-39             13023      0.17%     90.99% # Distribution of cycle latency between the first time a load is issued and its completion (Unspecified)
system.o3Cpu7.lsq0.loadToUse::40-49              1121      0.01%     91.01% # Distribution of cycle latency between the first time a load is issued and its completion (Unspecified)
system.o3Cpu7.lsq0.loadToUse::50-59               836      0.01%     91.02% # Distribution of cycle latency between the first time a load is issued and its completion (Unspecified)
system.o3Cpu7.lsq0.loadToUse::60-69               983      0.01%     91.03% # Distribution of cycle latency between the first time a load is issued and its completion (Unspecified)
system.o3Cpu7.lsq0.loadToUse::70-79               954      0.01%     91.04% # Distribution of cycle latency between the first time a load is issued and its completion (Unspecified)
system.o3Cpu7.lsq0.loadToUse::80-89               975      0.01%     91.05% # Distribution of cycle latency between the first time a load is issued and its completion (Unspecified)
system.o3Cpu7.lsq0.loadToUse::90-99               711      0.01%     91.06% # Distribution of cycle latency between the first time a load is issued and its completion (Unspecified)
system.o3Cpu7.lsq0.loadToUse::100-109             600      0.01%     91.07% # Distribution of cycle latency between the first time a load is issued and its completion (Unspecified)
system.o3Cpu7.lsq0.loadToUse::110-119             666      0.01%     91.08% # Distribution of cycle latency between the first time a load is issued and its completion (Unspecified)
system.o3Cpu7.lsq0.loadToUse::120-129             778      0.01%     91.09% # Distribution of cycle latency between the first time a load is issued and its completion (Unspecified)
system.o3Cpu7.lsq0.loadToUse::130-139             780      0.01%     91.10% # Distribution of cycle latency between the first time a load is issued and its completion (Unspecified)
system.o3Cpu7.lsq0.loadToUse::140-149             768      0.01%     91.11% # Distribution of cycle latency between the first time a load is issued and its completion (Unspecified)
system.o3Cpu7.lsq0.loadToUse::150-159             689      0.01%     91.12% # Distribution of cycle latency between the first time a load is issued and its completion (Unspecified)
system.o3Cpu7.lsq0.loadToUse::160-169             808      0.01%     91.13% # Distribution of cycle latency between the first time a load is issued and its completion (Unspecified)
system.o3Cpu7.lsq0.loadToUse::170-179            1008      0.01%     91.14% # Distribution of cycle latency between the first time a load is issued and its completion (Unspecified)
system.o3Cpu7.lsq0.loadToUse::180-189            1273      0.02%     91.16% # Distribution of cycle latency between the first time a load is issued and its completion (Unspecified)
system.o3Cpu7.lsq0.loadToUse::190-199            1303      0.02%     91.18% # Distribution of cycle latency between the first time a load is issued and its completion (Unspecified)
system.o3Cpu7.lsq0.loadToUse::200-209            1534      0.02%     91.20% # Distribution of cycle latency between the first time a load is issued and its completion (Unspecified)
system.o3Cpu7.lsq0.loadToUse::210-219            2514      0.03%     91.23% # Distribution of cycle latency between the first time a load is issued and its completion (Unspecified)
system.o3Cpu7.lsq0.loadToUse::220-229            3146      0.04%     91.27% # Distribution of cycle latency between the first time a load is issued and its completion (Unspecified)
system.o3Cpu7.lsq0.loadToUse::230-239            5748      0.08%     91.35% # Distribution of cycle latency between the first time a load is issued and its completion (Unspecified)
system.o3Cpu7.lsq0.loadToUse::240-249            6988      0.09%     91.44% # Distribution of cycle latency between the first time a load is issued and its completion (Unspecified)
system.o3Cpu7.lsq0.loadToUse::250-259           23995      0.31%     91.75% # Distribution of cycle latency between the first time a load is issued and its completion (Unspecified)
system.o3Cpu7.lsq0.loadToUse::260-269           53524      0.70%     92.45% # Distribution of cycle latency between the first time a load is issued and its completion (Unspecified)
system.o3Cpu7.lsq0.loadToUse::270-279           41957      0.55%     93.00% # Distribution of cycle latency between the first time a load is issued and its completion (Unspecified)
system.o3Cpu7.lsq0.loadToUse::280-289           71422      0.94%     93.94% # Distribution of cycle latency between the first time a load is issued and its completion (Unspecified)
system.o3Cpu7.lsq0.loadToUse::290-299            8275      0.11%     94.05% # Distribution of cycle latency between the first time a load is issued and its completion (Unspecified)
system.o3Cpu7.lsq0.loadToUse::overflows        454309      5.95%    100.00% # Distribution of cycle latency between the first time a load is issued and its completion (Unspecified)
system.o3Cpu7.lsq0.loadToUse::min_value             2                       # Distribution of cycle latency between the first time a load is issued and its completion (Unspecified)
system.o3Cpu7.lsq0.loadToUse::max_value          6749                       # Distribution of cycle latency between the first time a load is issued and its completion (Unspecified)
system.o3Cpu7.lsq0.loadToUse::total           7633032                       # Distribution of cycle latency between the first time a load is issued and its completion (Unspecified)
system.o3Cpu7.mmu.dtb.rdAccesses             15681264                       # TLB accesses on read requests (Count)
system.o3Cpu7.mmu.dtb.wrAccesses               520366                       # TLB accesses on write requests (Count)
system.o3Cpu7.mmu.dtb.rdMisses                  24174                       # TLB misses on read requests (Count)
system.o3Cpu7.mmu.dtb.wrMisses                    999                       # TLB misses on write requests (Count)
system.o3Cpu7.mmu.dtb.walker.power_state.pwrStateResidencyTicks::UNDEFINED  25148936599                       # Cumulative time (in ticks) in various power states (Tick)
system.o3Cpu7.mmu.itb.rdAccesses                    0                       # TLB accesses on read requests (Count)
system.o3Cpu7.mmu.itb.wrAccesses             13845625                       # TLB accesses on write requests (Count)
system.o3Cpu7.mmu.itb.rdMisses                      0                       # TLB misses on read requests (Count)
system.o3Cpu7.mmu.itb.wrMisses                    217                       # TLB misses on write requests (Count)
system.o3Cpu7.mmu.itb.walker.power_state.pwrStateResidencyTicks::UNDEFINED  25148936599                       # Cumulative time (in ticks) in various power states (Tick)
system.o3Cpu7.power_state.numTransitions            4                       # Number of power state transitions (Count)
system.o3Cpu7.power_state.ticksClkGated::samples            2                       # Distribution of time spent in the clock gated state (Tick)
system.o3Cpu7.power_state.ticksClkGated::mean    145726000                       # Distribution of time spent in the clock gated state (Tick)
system.o3Cpu7.power_state.ticksClkGated::stdev 173994654.376737                       # Distribution of time spent in the clock gated state (Tick)
system.o3Cpu7.power_state.ticksClkGated::1000-5e+10            2    100.00%    100.00% # Distribution of time spent in the clock gated state (Tick)
system.o3Cpu7.power_state.ticksClkGated::min_value     22693200                       # Distribution of time spent in the clock gated state (Tick)
system.o3Cpu7.power_state.ticksClkGated::max_value    268758800                       # Distribution of time spent in the clock gated state (Tick)
system.o3Cpu7.power_state.ticksClkGated::total            2                       # Distribution of time spent in the clock gated state (Tick)
system.o3Cpu7.power_state.pwrStateResidencyTicks::ON  19328621800                       # Cumulative time (in ticks) in various power states (Tick)
system.o3Cpu7.power_state.pwrStateResidencyTicks::CLK_GATED    291452000                       # Cumulative time (in ticks) in various power states (Tick)
system.o3Cpu7.power_state.pwrStateResidencyTicks::OFF   5528862799                       # Cumulative time (in ticks) in various power states (Tick)
system.o3Cpu7.rename.squashCycles              641941                       # Number of cycles rename is squashing (Cycle)
system.o3Cpu7.rename.idleCycles              11977264                       # Number of cycles rename is idle (Cycle)
system.o3Cpu7.rename.blockCycles             65017405                       # Number of cycles rename is blocking (Cycle)
system.o3Cpu7.rename.serializeStallCycles       182820                       # count of cycles rename stalled for serializing inst (Cycle)
system.o3Cpu7.rename.runCycles               13099643                       # Number of cycles rename is running (Cycle)
system.o3Cpu7.rename.unblockCycles           17287094                       # Number of cycles rename is unblocking (Cycle)
system.o3Cpu7.rename.renamedInsts           124400010                       # Number of instructions processed by rename (Count)
system.o3Cpu7.rename.ROBFullEvents             244251                       # Number of times rename has blocked due to ROB full (Count)
system.o3Cpu7.rename.IQFullEvents             3276001                       # Number of times rename has blocked due to IQ full (Count)
system.o3Cpu7.rename.LQFullEvents            15292921                       # Number of times rename has blocked due to LQ full (Count)
system.o3Cpu7.rename.SQFullEvents               13193                       # Number of times rename has blocked due to SQ full (Count)
system.o3Cpu7.rename.renamedOperands        231123804                       # Number of destination operands rename has renamed (Count)
system.o3Cpu7.rename.lookups                439462821                       # Number of register rename lookups that rename has made (Count)
system.o3Cpu7.rename.intLookups             162844422                       # Number of integer rename lookups (Count)
system.o3Cpu7.rename.fpLookups                   2584                       # Number of floating rename lookups (Count)
system.o3Cpu7.rename.committedMaps           90770549                       # Number of HB maps that are committed (Count)
system.o3Cpu7.rename.undoneMaps             140352934                       # Number of HB maps that are undone due to squashing (Count)
system.o3Cpu7.rename.serializing                 1678                       # count of serializing insts renamed (Count)
system.o3Cpu7.rename.tempSerializing             1745                       # count of temporary serializing insts renamed (Count)
system.o3Cpu7.rename.skidInsts               10448881                       # count of insts added to the skid buffer (Count)
system.o3Cpu7.rob.reads                     221657979                       # The number of ROB reads (Count)
system.o3Cpu7.rob.writes                    243245790                       # The number of ROB writes (Count)
system.o3Cpu7.thread_0.numInsts              30710383                       # Number of Instructions committed (Count)
system.o3Cpu7.thread_0.numOps                49233307                       # Number of Ops committed (Count)
system.o3Cpu7.thread_0.numMemRefs                   0                       # Number of Memory References (Count)
system.pc.bad_addr.power_state.pwrStateResidencyTicks::UNDEFINED  25148936599                       # Cumulative time (in ticks) in various power states (Tick)
system.pc.com_1.power_state.pwrStateResidencyTicks::UNDEFINED  25148936599                       # Cumulative time (in ticks) in various power states (Tick)
system.pc.default_bus.power_state.pwrStateResidencyTicks::UNDEFINED  25148936599                       # Cumulative time (in ticks) in various power states (Tick)
system.pc.empty_isa.power_state.pwrStateResidencyTicks::UNDEFINED  25148936599                       # Cumulative time (in ticks) in various power states (Tick)
system.pc.fake_com_2.power_state.pwrStateResidencyTicks::UNDEFINED  25148936599                       # Cumulative time (in ticks) in various power states (Tick)
system.pc.fake_com_3.power_state.pwrStateResidencyTicks::UNDEFINED  25148936599                       # Cumulative time (in ticks) in various power states (Tick)
system.pc.fake_com_4.power_state.pwrStateResidencyTicks::UNDEFINED  25148936599                       # Cumulative time (in ticks) in various power states (Tick)
system.pc.fake_floppy.power_state.pwrStateResidencyTicks::UNDEFINED  25148936599                       # Cumulative time (in ticks) in various power states (Tick)
system.pc.pci_host.power_state.pwrStateResidencyTicks::UNDEFINED  25148936599                       # Cumulative time (in ticks) in various power states (Tick)
system.pc.south_bridge.cmos.power_state.pwrStateResidencyTicks::UNDEFINED  25148936599                       # Cumulative time (in ticks) in various power states (Tick)
system.pc.south_bridge.dma1.power_state.pwrStateResidencyTicks::UNDEFINED  25148936599                       # Cumulative time (in ticks) in various power states (Tick)
system.pc.south_bridge.ide.disks0.IdeDisk.dmaReadFullPages            0                       # Number of full page size DMA reads (not PRD). (Count)
system.pc.south_bridge.ide.disks0.IdeDisk.dmaReadBytes            0                       # Number of bytes transfered via DMA reads (not PRD). (Byte)
system.pc.south_bridge.ide.disks0.IdeDisk.dmaReadTxs            0                       # Number of DMA read transactions (not PRD). (Count)
system.pc.south_bridge.ide.disks0.IdeDisk.dmaWriteFullPages            0                       # Number of full page size DMA writes. (Count)
system.pc.south_bridge.ide.disks0.IdeDisk.dmaWriteBytes            0                       # Number of bytes transfered via DMA writes. (Byte)
system.pc.south_bridge.ide.disks0.IdeDisk.dmaWriteTxs            0                       # Number of DMA write transactions. (Count)
system.pc.south_bridge.ide.disks1.IdeDisk.dmaReadFullPages            0                       # Number of full page size DMA reads (not PRD). (Count)
system.pc.south_bridge.ide.disks1.IdeDisk.dmaReadBytes            0                       # Number of bytes transfered via DMA reads (not PRD). (Byte)
system.pc.south_bridge.ide.disks1.IdeDisk.dmaReadTxs            0                       # Number of DMA read transactions (not PRD). (Count)
system.pc.south_bridge.ide.disks1.IdeDisk.dmaWriteFullPages            0                       # Number of full page size DMA writes. (Count)
system.pc.south_bridge.ide.disks1.IdeDisk.dmaWriteBytes            0                       # Number of bytes transfered via DMA writes. (Byte)
system.pc.south_bridge.ide.disks1.IdeDisk.dmaWriteTxs            0                       # Number of DMA write transactions. (Count)
system.pc.south_bridge.ide.power_state.pwrStateResidencyTicks::UNDEFINED  25148936599                       # Cumulative time (in ticks) in various power states (Tick)
system.pc.south_bridge.io_apic.power_state.pwrStateResidencyTicks::UNDEFINED  25148936599                       # Cumulative time (in ticks) in various power states (Tick)
system.pc.south_bridge.keyboard.power_state.pwrStateResidencyTicks::UNDEFINED  25148936599                       # Cumulative time (in ticks) in various power states (Tick)
system.pc.south_bridge.pic1.power_state.pwrStateResidencyTicks::UNDEFINED  25148936599                       # Cumulative time (in ticks) in various power states (Tick)
system.pc.south_bridge.pic2.power_state.pwrStateResidencyTicks::UNDEFINED  25148936599                       # Cumulative time (in ticks) in various power states (Tick)
system.pc.south_bridge.pit.power_state.pwrStateResidencyTicks::UNDEFINED  25148936599                       # Cumulative time (in ticks) in various power states (Tick)
system.pc.south_bridge.speaker.power_state.pwrStateResidencyTicks::UNDEFINED  25148936599                       # Cumulative time (in ticks) in various power states (Tick)
system.workload.inst.arm                            0                       # number of arm instructions executed (Count)
system.workload.inst.quiesce                        0                       # number of quiesce instructions executed (Count)

---------- End Simulation Statistics   ----------
