
---------- Begin Simulation Statistics ----------
simSeconds                                   0.041108                       # Number of seconds simulated (Second)
simTicks                                  41108219650                       # Number of ticks simulated (Tick)
finalTick                                392412682916000                       # Number of ticks from beginning of simulation (restored from checkpoints and never reset) (Tick)
simFreq                                  1000000000000                       # The number of ticks per simulated second ((Tick/Second))
hostSeconds                                   6449.39                       # Real time elapsed on the host (Second)
hostTickRate                                  6373967                       # The number of ticks simulated per host second (ticks/s) ((Tick/Second))
hostMemory                                   71596828                       # Number of bytes of host memory used (Byte)
simInsts                                    258789435                       # Number of instructions simulated (Count)
simOps                                      409563943                       # Number of ops (including micro ops) simulated (Count)
hostInstRate                                    40126                       # Simulator instruction rate (inst/s) ((Count/Second))
hostOpRate                                      63504                       # Simulator op (including micro ops) rate (op/s) ((Count/Second))
system.caches.delayHistogram::bucket_size         1024                       # delay histogram for all message (Unspecified)
system.caches.delayHistogram::max_bucket        10239                       # delay histogram for all message (Unspecified)
system.caches.delayHistogram::samples        19981664                       # delay histogram for all message (Unspecified)
system.caches.delayHistogram::mean           0.167004                       # delay histogram for all message (Unspecified)
system.caches.delayHistogram::stdev          2.124977                       # delay histogram for all message (Unspecified)
system.caches.delayHistogram             |    19981657    100.00%    100.00% |           3      0.00%    100.00% |           1      0.00%    100.00% |           1      0.00%    100.00% |           1      0.00%    100.00% |           1      0.00%    100.00% |           0      0.00%    100.00% |           0      0.00%    100.00% |           0      0.00%    100.00% |           0      0.00%    100.00% # delay histogram for all message (Unspecified)
system.caches.delayHistogram::total          19981664                       # delay histogram for all message (Unspecified)
system.caches.m_outstandReqHistSeqr::bucket_size            2                       (Unspecified)
system.caches.m_outstandReqHistSeqr::max_bucket           19                       (Unspecified)
system.caches.m_outstandReqHistSeqr::samples    162133084                       (Unspecified)
system.caches.m_outstandReqHistSeqr::mean     1.756674                       (Unspecified)
system.caches.m_outstandReqHistSeqr::gmean     1.492793                       (Unspecified)
system.caches.m_outstandReqHistSeqr::stdev     1.206513                       (Unspecified)
system.caches.m_outstandReqHistSeqr      |    94715608     58.42%     58.42% |    53608290     33.06%     91.48% |    10552130      6.51%     97.99% |     2783425      1.72%     99.71% |      372967      0.23%     99.94% |       82415      0.05%     99.99% |       15436      0.01%    100.00% |        2501      0.00%    100.00% |         312      0.00%    100.00% |           0      0.00%    100.00% (Unspecified)
system.caches.m_outstandReqHistSeqr::total    162133084                       (Unspecified)
system.caches.m_latencyHistSeqr::bucket_size          512                       (Unspecified)
system.caches.m_latencyHistSeqr::max_bucket         5119                       (Unspecified)
system.caches.m_latencyHistSeqr::samples    162587357                       (Unspecified)
system.caches.m_latencyHistSeqr::mean       11.503647                       (Unspecified)
system.caches.m_latencyHistSeqr::gmean       1.119124                       (Unspecified)
system.caches.m_latencyHistSeqr::stdev      92.243913                       (Unspecified)
system.caches.m_latencyHistSeqr          |   160759343     98.88%     98.88% |     1574091      0.97%     99.84% |      157216      0.10%     99.94% |       78094      0.05%     99.99% |       13539      0.01%    100.00% |        4478      0.00%    100.00% |         502      0.00%    100.00% |          80      0.00%    100.00% |          14      0.00%    100.00% |           0      0.00%    100.00% (Unspecified)
system.caches.m_latencyHistSeqr::total      162587357                       (Unspecified)
system.caches.m_hitLatencyHistSeqr::bucket_size          512                       (Unspecified)
system.caches.m_hitLatencyHistSeqr::max_bucket         5119                       (Unspecified)
system.caches.m_hitLatencyHistSeqr::samples    159456097                       (Unspecified)
system.caches.m_hitLatencyHistSeqr::mean     1.004139                       (Unspecified)
system.caches.m_hitLatencyHistSeqr::gmean     1.002149                       (Unspecified)
system.caches.m_hitLatencyHistSeqr::stdev     0.996084                       (Unspecified)
system.caches.m_hitLatencyHistSeqr       |   159455927    100.00%    100.00% |         131      0.00%    100.00% |          24      0.00%    100.00% |          12      0.00%    100.00% |           2      0.00%    100.00% |           1      0.00%    100.00% |           0      0.00%    100.00% |           0      0.00%    100.00% |           0      0.00%    100.00% |           0      0.00%    100.00% (Unspecified)
system.caches.m_hitLatencyHistSeqr::total    159456097                       (Unspecified)
system.caches.m_missLatencyHistSeqr::bucket_size          512                       (Unspecified)
system.caches.m_missLatencyHistSeqr::max_bucket         5119                       (Unspecified)
system.caches.m_missLatencyHistSeqr::samples      3131260                       (Unspecified)
system.caches.m_missLatencyHistSeqr::mean   546.179932                       (Unspecified)
system.caches.m_missLatencyHistSeqr::gmean   309.361748                       (Unspecified)
system.caches.m_missLatencyHistSeqr::stdev   387.652702                       (Unspecified)
system.caches.m_missLatencyHistSeqr      |     1303416     41.63%     41.63% |     1573960     50.27%     91.89% |      157192      5.02%     96.91% |       78082      2.49%     99.41% |       13537      0.43%     99.84% |        4477      0.14%     99.98% |         502      0.02%    100.00% |          80      0.00%    100.00% |          14      0.00%    100.00% |           0      0.00%    100.00% (Unspecified)
system.caches.m_missLatencyHistSeqr::total      3131260                       (Unspecified)
system.caches.delayVCHist.vnet_0::bucket_size         1024                       # delay histogram for vnet_0 (Unspecified)
system.caches.delayVCHist.vnet_0::max_bucket        10239                       # delay histogram for vnet_0 (Unspecified)
system.caches.delayVCHist.vnet_0::samples      8363066                       # delay histogram for vnet_0 (Unspecified)
system.caches.delayVCHist.vnet_0::mean       0.312529                       # delay histogram for vnet_0 (Unspecified)
system.caches.delayVCHist.vnet_0::stdev      3.215363                       # delay histogram for vnet_0 (Unspecified)
system.caches.delayVCHist.vnet_0         |     8363059    100.00%    100.00% |           3      0.00%    100.00% |           1      0.00%    100.00% |           1      0.00%    100.00% |           1      0.00%    100.00% |           1      0.00%    100.00% |           0      0.00%    100.00% |           0      0.00%    100.00% |           0      0.00%    100.00% |           0      0.00%    100.00% # delay histogram for vnet_0 (Unspecified)
system.caches.delayVCHist.vnet_0::total       8363066                       # delay histogram for vnet_0 (Unspecified)
system.caches.delayVCHist.vnet_1::bucket_size            8                       # delay histogram for vnet_1 (Unspecified)
system.caches.delayVCHist.vnet_1::max_bucket           79                       # delay histogram for vnet_1 (Unspecified)
system.caches.delayVCHist.vnet_1::samples     11184779                       # delay histogram for vnet_1 (Unspecified)
system.caches.delayVCHist.vnet_1::mean       0.064659                       # delay histogram for vnet_1 (Unspecified)
system.caches.delayVCHist.vnet_1::stdev      0.556124                       # delay histogram for vnet_1 (Unspecified)
system.caches.delayVCHist.vnet_1         |    11176396     99.93%     99.93% |        7901      0.07%    100.00% |         407      0.00%    100.00% |          58      0.00%    100.00% |          16      0.00%    100.00% |           1      0.00%    100.00% |           0      0.00%    100.00% |           0      0.00%    100.00% |           0      0.00%    100.00% |           0      0.00%    100.00% # delay histogram for vnet_1 (Unspecified)
system.caches.delayVCHist.vnet_1::total      11184779                       # delay histogram for vnet_1 (Unspecified)
system.caches.delayVCHist.vnet_2::bucket_size            1                       # delay histogram for vnet_2 (Unspecified)
system.caches.delayVCHist.vnet_2::max_bucket            9                       # delay histogram for vnet_2 (Unspecified)
system.caches.delayVCHist.vnet_2::samples       433819                       # delay histogram for vnet_2 (Unspecified)
system.caches.delayVCHist.vnet_2::mean       0.000244                       # delay histogram for vnet_2 (Unspecified)
system.caches.delayVCHist.vnet_2::stdev      0.022105                       # delay histogram for vnet_2 (Unspecified)
system.caches.delayVCHist.vnet_2         |      433766     99.99%     99.99% |           0      0.00%     99.99% |          53      0.01%    100.00% |           0      0.00%    100.00% |           0      0.00%    100.00% |           0      0.00%    100.00% |           0      0.00%    100.00% |           0      0.00%    100.00% |           0      0.00%    100.00% |           0      0.00%    100.00% # delay histogram for vnet_2 (Unspecified)
system.caches.delayVCHist.vnet_2::total        433819                       # delay histogram for vnet_2 (Unspecified)
system.caches.L1Cache_Controller.Load    |     9633369     12.07%     12.07% |    10018244     12.55%     24.62% |    10274255     12.87%     37.49% |    10108112     12.66%     50.15% |     9979324     12.50%     62.65% |     9773998     12.24%     74.89% |    10093696     12.64%     87.54% |     9950162     12.46%    100.00% (Unspecified)
system.caches.L1Cache_Controller.Load::total     79831160                       (Unspecified)
system.caches.L1Cache_Controller.Ifetch  |    10089162     12.59%     12.59% |    10006523     12.49%     25.08% |     9991597     12.47%     37.54% |    10000925     12.48%     50.02% |    10040588     12.53%     62.55% |    10030135     12.52%     75.07% |     9997526     12.48%     87.54% |     9982820     12.46%    100.00% (Unspecified)
system.caches.L1Cache_Controller.Ifetch::total     80139276                       (Unspecified)
system.caches.L1Cache_Controller.Store   |      369186     14.11%     14.11% |      319412     12.21%     26.31% |      317946     12.15%     38.46% |      318468     12.17%     50.63% |      336440     12.86%     63.49% |      318588     12.17%     75.66% |      317848     12.15%     87.81% |      319035     12.19%    100.00% (Unspecified)
system.caches.L1Cache_Controller.Store::total      2616923                       (Unspecified)
system.caches.L1Cache_Controller.Inv     |       45734     12.84%     12.84% |       44796     12.58%     25.42% |       43544     12.23%     37.65% |       44291     12.44%     50.08% |       43893     12.32%     62.41% |       44174     12.40%     74.81% |       44578     12.52%     87.33% |       45122     12.67%    100.00% (Unspecified)
system.caches.L1Cache_Controller.Inv::total       356132                       (Unspecified)
system.caches.L1Cache_Controller.L1_Replacement |      388016     12.65%     12.65% |      381967     12.46%     25.11% |      381483     12.44%     37.55% |      381768     12.45%     50.00% |      384026     12.52%     62.52% |      385617     12.58%     75.10% |      382453     12.47%     87.57% |      381085     12.43%    100.00% (Unspecified)
system.caches.L1Cache_Controller.L1_Replacement::total      3066415                       (Unspecified)
system.caches.L1Cache_Controller.Fwd_GETX |         119     10.99%     10.99% |         143     13.20%     24.19% |         140     12.93%     37.12% |         145     13.39%     50.51% |         134     12.37%     62.88% |         122     11.27%     74.15% |         145     13.39%     87.53% |         135     12.47%    100.00% (Unspecified)
system.caches.L1Cache_Controller.Fwd_GETX::total         1083                       (Unspecified)
system.caches.L1Cache_Controller.Fwd_GETS |       10094     13.18%     13.18% |       10018     13.08%     26.25% |        9904     12.93%     39.18% |        9373     12.24%     51.42% |        9283     12.12%     63.54% |        9358     12.22%     75.75% |        9310     12.15%     87.91% |        9263     12.09%    100.00% (Unspecified)
system.caches.L1Cache_Controller.Fwd_GETS::total        76603                       (Unspecified)
system.caches.L1Cache_Controller.Fwd_GET_INSTR |           1    100.00%    100.00% |           0      0.00%    100.00% |           0      0.00%    100.00% |           0      0.00%    100.00% |           0      0.00%    100.00% |           0      0.00%    100.00% |           0      0.00%    100.00% |           0      0.00%    100.00% (Unspecified)
system.caches.L1Cache_Controller.Fwd_GET_INSTR::total            1                       (Unspecified)
system.caches.L1Cache_Controller.Data    |          58     90.62%     90.62% |           1      1.56%     92.19% |           1      1.56%     93.75% |           2      3.12%     96.88% |           0      0.00%     96.88% |           0      0.00%     96.88% |           1      1.56%     98.44% |           1      1.56%    100.00% (Unspecified)
system.caches.L1Cache_Controller.Data::total           64                       (Unspecified)
system.caches.L1Cache_Controller.Data_Exclusive |      331102     12.58%     12.58% |      328301     12.48%     25.06% |      327662     12.45%     37.52% |      327509     12.45%     49.97% |      329299     12.52%     62.48% |      331186     12.59%     75.07% |      328411     12.48%     87.55% |      327502     12.45%    100.00% (Unspecified)
system.caches.L1Cache_Controller.Data_Exclusive::total      2630972                       (Unspecified)
system.caches.L1Cache_Controller.DataS_fromL1 |        9524     12.43%     12.43% |       10061     13.13%     25.57% |        9645     12.59%     38.16% |        9431     12.31%     50.47% |        9259     12.09%     62.56% |        9601     12.53%     75.09% |        9618     12.56%     87.64% |        9465     12.36%    100.00% (Unspecified)
system.caches.L1Cache_Controller.DataS_fromL1::total        76604                       (Unspecified)
system.caches.L1Cache_Controller.Data_all_Acks |       54436     13.04%     13.04% |       51110     12.24%     25.28% |       51235     12.27%     37.55% |       52297     12.53%     50.08% |       52861     12.66%     62.74% |       52236     12.51%     75.25% |       51843     12.42%     87.67% |       51473     12.33%    100.00% (Unspecified)
system.caches.L1Cache_Controller.Data_all_Acks::total       417491                       (Unspecified)
system.caches.L1Cache_Controller.Ack     |        2487     11.99%     11.99% |        3290     15.86%     27.85% |        5869     28.30%     56.15% |        2371     11.43%     67.58% |        1942      9.36%     76.94% |        1830      8.82%     85.76% |        1511      7.28%     93.05% |        1442      6.95%    100.00% (Unspecified)
system.caches.L1Cache_Controller.Ack::total        20742                       (Unspecified)
system.caches.L1Cache_Controller.Ack_all |         753     12.16%     12.16% |         969     15.65%     27.81% |        1296     20.93%     48.73% |         818     13.21%     61.94% |         672     10.85%     72.79% |         638     10.30%     83.09% |         548      8.85%     91.94% |         499      8.06%    100.00% (Unspecified)
system.caches.L1Cache_Controller.Ack_all::total         6193                       (Unspecified)
system.caches.L1Cache_Controller.WB_Ack  |      319550     12.75%     12.75% |      311499     12.43%     25.18% |      311793     12.44%     37.61% |      311500     12.43%     50.04% |      313514     12.51%     62.55% |      315576     12.59%     75.14% |      312363     12.46%     87.60% |      310812     12.40%    100.00% (Unspecified)
system.caches.L1Cache_Controller.WB_Ack::total      2506607                       (Unspecified)
system.caches.L1Cache_Controller.NP.Load |      379812     12.56%     12.56% |      376906     12.47%     25.03% |      376942     12.47%     37.50% |      376780     12.46%     49.96% |      378292     12.51%     62.47% |      381002     12.60%     75.07% |      377574     12.49%     87.56% |      375995     12.44%    100.00% (Unspecified)
system.caches.L1Cache_Controller.NP.Load::total      3023303                       (Unspecified)
system.caches.L1Cache_Controller.NP.Ifetch |        6122     18.07%     18.07% |        4030     11.89%     29.96% |        3546     10.47%     40.43% |        3971     11.72%     52.15% |        4718     13.92%     66.07% |        3596     10.61%     76.68% |        3854     11.37%     88.06% |        4047     11.94%    100.00% (Unspecified)
system.caches.L1Cache_Controller.NP.Ifetch::total        33884                       (Unspecified)
system.caches.L1Cache_Controller.NP.Store |        2270     22.15%     22.15% |        1150     11.22%     33.38% |        1113     10.86%     44.24% |        1136     11.09%     55.33% |        1133     11.06%     66.39% |        1138     11.11%     77.49% |        1144     11.17%     88.66% |        1162     11.34%    100.00% (Unspecified)
system.caches.L1Cache_Controller.NP.Store::total        10246                       (Unspecified)
system.caches.L1Cache_Controller.NP.Inv  |       31869     13.06%     13.06% |       30406     12.46%     25.52% |       30020     12.30%     37.82% |       30060     12.32%     50.14% |       30146     12.35%     62.49% |       30519     12.51%     75.00% |       30630     12.55%     87.55% |       30380     12.45%    100.00% (Unspecified)
system.caches.L1Cache_Controller.NP.Inv::total       244030                       (Unspecified)
system.caches.L1Cache_Controller.I.Load  |        3681     11.91%     11.91% |        4035     13.06%     24.97% |        3623     11.72%     36.69% |        3996     12.93%     49.62% |        3909     12.65%     62.27% |        3892     12.59%     74.87% |        3886     12.57%     87.44% |        3881     12.56%    100.00% (Unspecified)
system.caches.L1Cache_Controller.I.Load::total        30903                       (Unspecified)
system.caches.L1Cache_Controller.I.Ifetch |        3107     12.16%     12.16% |        3188     12.48%     24.64% |        3168     12.40%     37.04% |        3187     12.48%     49.52% |        3208     12.56%     62.07% |        3237     12.67%     74.74% |        3246     12.71%     87.45% |        3206     12.55%    100.00% (Unspecified)
system.caches.L1Cache_Controller.I.Ifetch::total        25547                       (Unspecified)
system.caches.L1Cache_Controller.I.Store |         128     10.28%     10.28% |         163     13.09%     23.37% |         151     12.13%     35.50% |         169     13.57%     49.08% |         159     12.77%     61.85% |         158     12.69%     74.54% |         168     13.49%     88.03% |         149     11.97%    100.00% (Unspecified)
system.caches.L1Cache_Controller.I.Store::total         1245                       (Unspecified)
system.caches.L1Cache_Controller.I.L1_Replacement |        6990      8.81%      8.81% |       10568     13.32%     22.14% |       10136     12.78%     34.91% |       10463     13.19%     48.11% |       10052     12.67%     60.78% |        9833     12.40%     73.18% |       10266     12.94%     86.12% |       11011     13.88%    100.00% (Unspecified)
system.caches.L1Cache_Controller.I.L1_Replacement::total        79319                       (Unspecified)
system.caches.L1Cache_Controller.S.Load  |     4871343     11.69%     11.69% |     5328806     12.78%     24.47% |     5448054     13.07%     37.54% |     5431545     13.03%     50.57% |     5262858     12.63%     63.20% |     5074408     12.17%     75.37% |     5320401     12.76%     88.14% |     4944436     11.86%    100.00% (Unspecified)
system.caches.L1Cache_Controller.S.Load::total     41681851                       (Unspecified)
system.caches.L1Cache_Controller.S.Ifetch |    10079931     12.59%     12.59% |     9999305     12.49%     25.07% |     9984883     12.47%     37.54% |     9993767     12.48%     50.02% |    10032662     12.53%     62.55% |    10023302     12.52%     75.07% |     9990426     12.48%     87.54% |     9975567     12.46%    100.00% (Unspecified)
system.caches.L1Cache_Controller.S.Ifetch::total     80079843                       (Unspecified)
system.caches.L1Cache_Controller.S.Store |         695     11.33%     11.33% |         969     15.80%     27.14% |        1295     21.12%     48.26% |         816     13.31%     61.56% |         672     10.96%     72.52% |         638     10.40%     82.93% |         548      8.94%     91.86% |         499      8.14%    100.00% (Unspecified)
system.caches.L1Cache_Controller.S.Store::total         6132                       (Unspecified)
system.caches.L1Cache_Controller.S.Inv   |        9396     12.85%     12.85% |        9068     12.40%     25.26% |        8760     11.98%     37.24% |        9263     12.67%     49.91% |        9079     12.42%     62.33% |        9165     12.54%     74.86% |        9177     12.55%     87.41% |        9201     12.59%    100.00% (Unspecified)
system.caches.L1Cache_Controller.S.Inv::total        73109                       (Unspecified)
system.caches.L1Cache_Controller.S.L1_Replacement |       61476     12.79%     12.79% |       59900     12.47%     25.26% |       59554     12.39%     37.66% |       59805     12.45%     50.10% |       60457     12.58%     62.68% |       60208     12.53%     75.22% |       59824     12.45%     87.67% |       59262     12.33%    100.00% (Unspecified)
system.caches.L1Cache_Controller.S.L1_Replacement::total       480486                       (Unspecified)
system.caches.L1Cache_Controller.E.Load  |     2252975     11.75%     11.75% |     2330041     12.15%     23.90% |     2482386     12.95%     36.85% |     2449118     12.77%     49.62% |     2158888     11.26%     60.88% |     2406360     12.55%     73.42% |     2397012     12.50%     85.92% |     2699193     14.08%    100.00% (Unspecified)
system.caches.L1Cache_Controller.E.Load::total     19175973                       (Unspecified)
system.caches.L1Cache_Controller.E.Store |       33305     12.66%     12.66% |       32624     12.40%     25.07% |       32293     12.28%     37.35% |       32773     12.46%     49.81% |       32911     12.51%     62.32% |       32942     12.53%     74.85% |       33050     12.57%     87.41% |       33106     12.59%    100.00% (Unspecified)
system.caches.L1Cache_Controller.E.Store::total       263004                       (Unspecified)
system.caches.L1Cache_Controller.E.Inv   |        3743     10.94%     10.94% |        4608     13.47%     24.41% |        4155     12.15%     36.56% |        4345     12.70%     49.26% |        4049     11.84%     61.09% |        3996     11.68%     72.77% |        4326     12.65%     85.42% |        4989     14.58%    100.00% (Unspecified)
system.caches.L1Cache_Controller.E.Inv::total        34211                       (Unspecified)
system.caches.L1Cache_Controller.E.L1_Replacement |      280874     12.58%     12.58% |      278295     12.46%     25.04% |      278894     12.49%     37.52% |      278097     12.45%     49.97% |      279971     12.53%     62.51% |      281874     12.62%     75.13% |      278519     12.47%     87.60% |      277003     12.40%    100.00% (Unspecified)
system.caches.L1Cache_Controller.E.L1_Replacement::total      2233527                       (Unspecified)
system.caches.L1Cache_Controller.E.Fwd_GETX |           0      0.00%      0.00% |           7     19.44%     19.44% |           7     19.44%     38.89% |           4     11.11%     50.00% |           5     13.89%     63.89% |           4     11.11%     75.00% |           5     13.89%     88.89% |           4     11.11%    100.00% (Unspecified)
system.caches.L1Cache_Controller.E.Fwd_GETX::total           36                       (Unspecified)
system.caches.L1Cache_Controller.E.Fwd_GETS |        9310     13.14%     13.14% |        9135     12.89%     26.03% |        8667     12.23%     38.26% |        8621     12.17%     50.42% |        8690     12.26%     62.69% |        8782     12.39%     75.08% |        8825     12.45%     87.53% |        8835     12.47%    100.00% (Unspecified)
system.caches.L1Cache_Controller.E.Fwd_GETS::total        70865                       (Unspecified)
system.caches.L1Cache_Controller.E.Fwd_GET_INSTR |           1    100.00%    100.00% |           0      0.00%    100.00% |           0      0.00%    100.00% |           0      0.00%    100.00% |           0      0.00%    100.00% |           0      0.00%    100.00% |           0      0.00%    100.00% |           0      0.00%    100.00% (Unspecified)
system.caches.L1Cache_Controller.E.Fwd_GET_INSTR::total            1                       (Unspecified)
system.caches.L1Cache_Controller.M.Load  |     2125558     13.35%     13.35% |     1978456     12.43%     25.78% |     1963250     12.33%     38.11% |     1846673     11.60%     49.71% |     2175377     13.67%     63.38% |     1908336     11.99%     75.37% |     1994823     12.53%     87.90% |     1926657     12.10%    100.00% (Unspecified)
system.caches.L1Cache_Controller.M.Load::total     15919130                       (Unspecified)
system.caches.L1Cache_Controller.M.Store |      332788     14.24%     14.24% |      284506     12.18%     26.42% |      283094     12.12%     38.54% |      283574     12.14%     50.68% |      301565     12.91%     63.58% |      283712     12.14%     75.73% |      282938     12.11%     87.84% |      284119     12.16%    100.00% (Unspecified)
system.caches.L1Cache_Controller.M.Store::total      2336296                       (Unspecified)
system.caches.L1Cache_Controller.M.Inv   |         726     15.40%     15.40% |         693     14.70%     30.10% |         587     12.45%     42.55% |         607     12.88%     55.43% |         618     13.11%     68.54% |         490     10.39%     78.94% |         443      9.40%     88.33% |         550     11.67%    100.00% (Unspecified)
system.caches.L1Cache_Controller.M.Inv::total         4714                       (Unspecified)
system.caches.L1Cache_Controller.M.L1_Replacement |       38676     14.16%     14.16% |       33204     12.16%     26.32% |       32899     12.05%     38.37% |       33403     12.23%     50.60% |       33543     12.28%     62.88% |       33702     12.34%     75.23% |       33844     12.39%     87.62% |       33809     12.38%    100.00% (Unspecified)
system.caches.L1Cache_Controller.M.L1_Replacement::total       273080                       (Unspecified)
system.caches.L1Cache_Controller.M.Fwd_GETX |         119     11.37%     11.37% |         136     12.99%     24.36% |         133     12.70%     37.06% |         141     13.47%     50.53% |         129     12.32%     62.85% |         118     11.27%     74.12% |         140     13.37%     87.49% |         131     12.51%    100.00% (Unspecified)
system.caches.L1Cache_Controller.M.Fwd_GETX::total         1047                       (Unspecified)
system.caches.L1Cache_Controller.M.Fwd_GETS |         784     13.66%     13.66% |         883     15.39%     29.05% |        1237     21.56%     50.61% |         752     13.11%     63.72% |         593     10.33%     74.05% |         576     10.04%     84.09% |         485      8.45%     92.54% |         428      7.46%    100.00% (Unspecified)
system.caches.L1Cache_Controller.M.Fwd_GETS::total         5738                       (Unspecified)
system.caches.L1Cache_Controller.IS.Inv  |           0      0.00%      0.00% |          19     30.16%     30.16% |          22     34.92%     65.08% |          15     23.81%     88.89% |           1      1.59%     90.48% |           4      6.35%     96.83% |           1      1.59%     98.41% |           1      1.59%    100.00% (Unspecified)
system.caches.L1Cache_Controller.IS.Inv::total           63                       (Unspecified)
system.caches.L1Cache_Controller.IS.Data_Exclusive |      331102     12.58%     12.58% |      328300     12.48%     25.06% |      327662     12.45%     37.52% |      327509     12.45%     49.97% |      329299     12.52%     62.48% |      331186     12.59%     75.07% |      328411     12.48%     87.55% |      327502     12.45%    100.00% (Unspecified)
system.caches.L1Cache_Controller.IS.Data_Exclusive::total      2630971                       (Unspecified)
system.caches.L1Cache_Controller.IS.DataS_fromL1 |        9524     12.43%     12.43% |       10061     13.13%     25.57% |        9645     12.59%     38.16% |        9431     12.31%     50.47% |        9259     12.09%     62.56% |        9601     12.53%     75.09% |        9618     12.56%     87.64% |        9465     12.36%    100.00% (Unspecified)
system.caches.L1Cache_Controller.IS.DataS_fromL1::total        76604                       (Unspecified)
system.caches.L1Cache_Controller.IS.Data_all_Acks |       52096     12.83%     12.83% |       49779     12.26%     25.09% |       49950     12.30%     37.40% |       50979     12.56%     49.95% |       51568     12.70%     62.65% |       50936     12.55%     75.20% |       50530     12.45%     87.65% |       50161     12.35%    100.00% (Unspecified)
system.caches.L1Cache_Controller.IS.Data_all_Acks::total       405999                       (Unspecified)
system.caches.L1Cache_Controller.IM.L1_Replacement |           0      0.00%      0.00% |           0      0.00%      0.00% |           0      0.00%      0.00% |           0      0.00%      0.00% |           3    100.00%    100.00% |           0      0.00%    100.00% |           0      0.00%    100.00% |           0      0.00%    100.00% (Unspecified)
system.caches.L1Cache_Controller.IM.L1_Replacement::total            3                       (Unspecified)
system.caches.L1Cache_Controller.IM.Data |          58     90.62%     90.62% |           1      1.56%     92.19% |           1      1.56%     93.75% |           2      3.12%     96.88% |           0      0.00%     96.88% |           0      0.00%     96.88% |           1      1.56%     98.44% |           1      1.56%    100.00% (Unspecified)
system.caches.L1Cache_Controller.IM.Data::total           64                       (Unspecified)
system.caches.L1Cache_Controller.IM.Data_all_Acks |        2340     20.47%     20.47% |        1313     11.49%     31.96% |        1263     11.05%     43.01% |        1303     11.40%     54.41% |        1292     11.30%     65.71% |        1296     11.34%     77.05% |        1312     11.48%     88.53% |        1311     11.47%    100.00% (Unspecified)
system.caches.L1Cache_Controller.IM.Data_all_Acks::total        11430                       (Unspecified)
system.caches.L1Cache_Controller.SM.Inv  |           0      0.00%      0.00% |           1     33.33%     33.33% |           0      0.00%     33.33% |           0      0.00%     33.33% |           0      0.00%     33.33% |           0      0.00%     33.33% |           1     33.33%     66.67% |           1     33.33%    100.00% (Unspecified)
system.caches.L1Cache_Controller.SM.Inv::total            3                       (Unspecified)
system.caches.L1Cache_Controller.SM.Ack  |        2487     11.99%     11.99% |        3290     15.86%     27.85% |        5869     28.30%     56.15% |        2371     11.43%     67.58% |        1942      9.36%     76.94% |        1830      8.82%     85.76% |        1511      7.28%     93.05% |        1442      6.95%    100.00% (Unspecified)
system.caches.L1Cache_Controller.SM.Ack::total        20742                       (Unspecified)
system.caches.L1Cache_Controller.SM.Ack_all |         753     12.16%     12.16% |         969     15.65%     27.81% |        1296     20.93%     48.73% |         818     13.21%     61.94% |         672     10.85%     72.79% |         638     10.30%     83.09% |         548      8.85%     91.94% |         499      8.06%    100.00% (Unspecified)
system.caches.L1Cache_Controller.SM.Ack_all::total         6193                       (Unspecified)
system.caches.L1Cache_Controller.IS_I.Data_Exclusive |           0      0.00%      0.00% |           1    100.00%    100.00% |           0      0.00%    100.00% |           0      0.00%    100.00% |           0      0.00%    100.00% |           0      0.00%    100.00% |           0      0.00%    100.00% |           0      0.00%    100.00% (Unspecified)
system.caches.L1Cache_Controller.IS_I.Data_Exclusive::total            1                       (Unspecified)
system.caches.L1Cache_Controller.IS_I.Data_all_Acks |           0      0.00%      0.00% |          18     29.03%     29.03% |          22     35.48%     64.52% |          15     24.19%     88.71% |           1      1.61%     90.32% |           4      6.45%     96.77% |           1      1.61%     98.39% |           1      1.61%    100.00% (Unspecified)
system.caches.L1Cache_Controller.IS_I.Data_all_Acks::total           62                       (Unspecified)
system.caches.L1Cache_Controller.M_I.Ifetch |           2    100.00%    100.00% |           0      0.00%    100.00% |           0      0.00%    100.00% |           0      0.00%    100.00% |           0      0.00%    100.00% |           0      0.00%    100.00% |           0      0.00%    100.00% |           0      0.00%    100.00% (Unspecified)
system.caches.L1Cache_Controller.M_I.Ifetch::total            2                       (Unspecified)
system.caches.L1Cache_Controller.M_I.Inv |           0      0.00%      0.00% |           1     50.00%     50.00% |           0      0.00%     50.00% |           1     50.00%    100.00% |           0      0.00%    100.00% |           0      0.00%    100.00% |           0      0.00%    100.00% |           0      0.00%    100.00% (Unspecified)
system.caches.L1Cache_Controller.M_I.Inv::total            2                       (Unspecified)
system.caches.L1Cache_Controller.M_I.WB_Ack |      319550     12.75%     12.75% |      311498     12.43%     25.18% |      311793     12.44%     37.61% |      311499     12.43%     50.04% |      313514     12.51%     62.55% |      315576     12.59%     75.14% |      312363     12.46%     87.60% |      310812     12.40%    100.00% (Unspecified)
system.caches.L1Cache_Controller.M_I.WB_Ack::total      2506605                       (Unspecified)
system.caches.L1Cache_Controller.SINK_WB_ACK.WB_Ack |           0      0.00%      0.00% |           1     50.00%     50.00% |           0      0.00%     50.00% |           1     50.00%    100.00% |           0      0.00%    100.00% |           0      0.00%    100.00% |           0      0.00%    100.00% |           0      0.00%    100.00% (Unspecified)
system.caches.L1Cache_Controller.SINK_WB_ACK.WB_Ack::total            2                       (Unspecified)
system.caches.Directory_Controller.Fetch |        8217      0.32%      0.32% |     2548871     99.68%    100.00% (Unspecified)
system.caches.Directory_Controller.Fetch::total      2557088                       (Unspecified)
system.caches.Directory_Controller.Data  |         423      0.13%      0.13% |      332887     99.87%    100.00% (Unspecified)
system.caches.Directory_Controller.Data::total       333310                       (Unspecified)
system.caches.Directory_Controller.Memory_Data |        8217      0.32%      0.32% |     2548871     99.68%    100.00% (Unspecified)
system.caches.Directory_Controller.Memory_Data::total      2557088                       (Unspecified)
system.caches.Directory_Controller.Memory_Ack |         423      0.13%      0.13% |      332887     99.87%    100.00% (Unspecified)
system.caches.Directory_Controller.Memory_Ack::total       333310                       (Unspecified)
system.caches.Directory_Controller.CleanReplacement |        7654      0.34%      0.34% |     2216124     99.66%    100.00% (Unspecified)
system.caches.Directory_Controller.CleanReplacement::total      2223778                       (Unspecified)
system.caches.Directory_Controller.I.Fetch |        8217      0.32%      0.32% |     2548871     99.68%    100.00% (Unspecified)
system.caches.Directory_Controller.I.Fetch::total      2557088                       (Unspecified)
system.caches.Directory_Controller.M.Data |         423      0.13%      0.13% |      332887     99.87%    100.00% (Unspecified)
system.caches.Directory_Controller.M.Data::total       333310                       (Unspecified)
system.caches.Directory_Controller.M.CleanReplacement |        7654      0.34%      0.34% |     2216124     99.66%    100.00% (Unspecified)
system.caches.Directory_Controller.M.CleanReplacement::total      2223778                       (Unspecified)
system.caches.Directory_Controller.IM.Memory_Data |        8217      0.32%      0.32% |     2548871     99.68%    100.00% (Unspecified)
system.caches.Directory_Controller.IM.Memory_Data::total      2557088                       (Unspecified)
system.caches.Directory_Controller.MI.Memory_Ack |         423      0.13%      0.13% |      332887     99.87%    100.00% (Unspecified)
system.caches.Directory_Controller.MI.Memory_Ack::total       333310                       (Unspecified)
system.caches.L2Cache_Controller.L1_GET_INSTR |        7803     13.09%     13.09% |        8295     13.92%     27.01% |        7509     12.60%     39.61% |        5504      9.24%     48.85% |        7416     12.44%     61.29% |        7948     13.34%     74.63% |        7333     12.30%     86.93% |        7787     13.07%    100.00% (Unspecified)
system.caches.L2Cache_Controller.L1_GET_INSTR::total        59595                       (Unspecified)
system.caches.L2Cache_Controller.L1_GETS |      385612     12.62%     12.62% |      381931     12.50%     25.12% |      383275     12.55%     37.67% |      377466     12.36%     50.02% |      379900     12.43%     62.46% |      380887     12.47%     74.93% |      380636     12.46%     87.39% |      385385     12.61%    100.00% (Unspecified)
system.caches.L2Cache_Controller.L1_GETS::total      3055092                       (Unspecified)
system.caches.L2Cache_Controller.L1_GETX |        1721     14.77%     14.77% |        2174     18.66%     33.43% |         338      2.90%     36.33% |         958      8.22%     44.55% |        1230     10.56%     55.11% |        2275     19.53%     74.64% |        1254     10.76%     85.40% |        1701     14.60%    100.00% (Unspecified)
system.caches.L2Cache_Controller.L1_GETX::total        11651                       (Unspecified)
system.caches.L2Cache_Controller.L1_UPGRADE |         678     10.97%     10.97% |         708     11.46%     22.43% |         690     11.17%     33.60% |         756     12.24%     45.84% |         747     12.09%     57.93% |         748     12.11%     70.04% |         909     14.71%     84.75% |         942     15.25%    100.00% (Unspecified)
system.caches.L2Cache_Controller.L1_UPGRADE::total         6178                       (Unspecified)
system.caches.L2Cache_Controller.L1_PUTX |      314690     12.55%     12.55% |      313621     12.51%     25.07% |      312355     12.46%     37.53% |      312063     12.45%     49.98% |      312719     12.48%     62.45% |      313909     12.52%     74.98% |      313366     12.50%     87.48% |      313882     12.52%    100.00% (Unspecified)
system.caches.L2Cache_Controller.L1_PUTX::total      2506605                       (Unspecified)
system.caches.L2Cache_Controller.L1_PUTX_old |           0      0.00%      0.00% |           2     50.00%     50.00% |           0      0.00%     50.00% |           0      0.00%     50.00% |           0      0.00%     50.00% |           0      0.00%     50.00% |           2     50.00%    100.00% |           0      0.00%    100.00% (Unspecified)
system.caches.L2Cache_Controller.L1_PUTX_old::total            4                       (Unspecified)
system.caches.L2Cache_Controller.L2_Replacement |       41453     12.61%     12.61% |       40794     12.41%     25.02% |       40144     12.21%     37.23% |       40984     12.47%     49.70% |       40792     12.41%     62.10% |       41883     12.74%     74.84% |       41055     12.49%     87.33% |       41643     12.67%    100.00% (Unspecified)
system.caches.L2Cache_Controller.L2_Replacement::total       328748                       (Unspecified)
system.caches.L2Cache_Controller.L2_Replacement_clean |      279802     12.56%     12.56% |      279513     12.54%     25.10% |      277929     12.47%     37.57% |      277635     12.46%     50.03% |      278075     12.48%     62.51% |      278200     12.48%     75.00% |      278443     12.50%     87.49% |      278743     12.51%    100.00% (Unspecified)
system.caches.L2Cache_Controller.L2_Replacement_clean::total      2228340                       (Unspecified)
system.caches.L2Cache_Controller.Mem_Data |      321255     12.56%     12.56% |      320307     12.53%     25.09% |      318073     12.44%     37.53% |      318619     12.46%     49.99% |      318867     12.47%     62.46% |      320083     12.52%     74.98% |      319498     12.49%     87.47% |      320386     12.53%    100.00% (Unspecified)
system.caches.L2Cache_Controller.Mem_Data::total      2557088                       (Unspecified)
system.caches.L2Cache_Controller.Mem_Ack |      321255     12.56%     12.56% |      320307     12.53%     25.09% |      318073     12.44%     37.53% |      318619     12.46%     49.99% |      318867     12.47%     62.46% |      320083     12.52%     74.98% |      319498     12.49%     87.47% |      320386     12.53%    100.00% (Unspecified)
system.caches.L2Cache_Controller.Mem_Ack::total      2557088                       (Unspecified)
system.caches.L2Cache_Controller.WB_Data |        1529     14.63%     14.63% |        1307     12.50%     27.13% |         987      9.44%     36.58% |        1231     11.78%     48.35% |        1240     11.86%     60.22% |        1294     12.38%     72.60% |        1333     12.75%     85.35% |        1531     14.65%    100.00% (Unspecified)
system.caches.L2Cache_Controller.WB_Data::total        10452                       (Unspecified)
system.caches.L2Cache_Controller.WB_Data_clean |        8811     12.43%     12.43% |        8842     12.48%     24.91% |        8754     12.35%     37.26% |        8761     12.36%     49.62% |        8768     12.37%     62.00% |        8885     12.54%     74.53% |        8742     12.34%     86.87% |        9305     13.13%    100.00% (Unspecified)
system.caches.L2Cache_Controller.WB_Data_clean::total        70868                       (Unspecified)
system.caches.L2Cache_Controller.Ack     |       28842     13.32%     13.32% |       27693     12.79%     26.10% |       27069     12.50%     38.60% |       25916     11.97%     50.57% |       26192     12.09%     62.66% |       26606     12.29%     74.95% |       26111     12.06%     87.01% |       28143     12.99%    100.00% (Unspecified)
system.caches.L2Cache_Controller.Ack::total       216572                       (Unspecified)
system.caches.L2Cache_Controller.Ack_all |       14759     12.94%     12.94% |       14728     12.91%     25.86% |       13616     11.94%     37.80% |       14000     12.28%     50.07% |       14070     12.34%     62.41% |       14317     12.55%     74.97% |       13946     12.23%     87.20% |       14602     12.80%    100.00% (Unspecified)
system.caches.L2Cache_Controller.Ack_all::total       114038                       (Unspecified)
system.caches.L2Cache_Controller.Unblock |        9524     12.43%     12.43% |        9531     12.44%     24.87% |        9351     12.21%     37.08% |        9484     12.38%     49.46% |        9449     12.33%     61.80% |        9524     12.43%     74.23% |        9545     12.46%     86.69% |       10196     13.31%    100.00% (Unspecified)
system.caches.L2Cache_Controller.Unblock::total        76604                       (Unspecified)
system.caches.L2Cache_Controller.Exclusive_Unblock |      332733     12.56%     12.56% |      332435     12.55%     25.11% |      329057     12.42%     37.54% |      329534     12.44%     49.98% |      330199     12.47%     62.45% |      331720     12.52%     74.97% |      330878     12.49%     87.46% |      332039     12.54%    100.00% (Unspecified)
system.caches.L2Cache_Controller.Exclusive_Unblock::total      2648595                       (Unspecified)
system.caches.L2Cache_Controller.NP.L1_GET_INSTR |         984     13.21%     13.21% |        1029     13.82%     27.03% |         931     12.50%     39.53% |         812     10.90%     50.43% |         924     12.41%     62.84% |         906     12.16%     75.00% |         904     12.14%     87.14% |         958     12.86%    100.00% (Unspecified)
system.caches.L2Cache_Controller.NP.L1_GET_INSTR::total         7448                       (Unspecified)
system.caches.L2Cache_Controller.NP.L1_GETS |      318728     12.55%     12.55% |      318184     12.52%     25.07% |      316907     12.47%     37.54% |      316997     12.48%     50.02% |      316932     12.47%     62.49% |      317245     12.49%     74.98% |      317592     12.50%     87.48% |      318074     12.52%    100.00% (Unspecified)
system.caches.L2Cache_Controller.NP.L1_GETS::total      2540659                       (Unspecified)
system.caches.L2Cache_Controller.NP.L1_GETX |        1543     17.18%     17.18% |        1094     12.18%     29.36% |         235      2.62%     31.98% |         810      9.02%     41.00% |        1011     11.26%     52.25% |        1932     21.51%     73.77% |        1002     11.16%     84.92% |        1354     15.08%    100.00% (Unspecified)
system.caches.L2Cache_Controller.NP.L1_GETX::total         8981                       (Unspecified)
system.caches.L2Cache_Controller.NP.L1_PUTX_old |           0      0.00%      0.00% |           1     50.00%     50.00% |           0      0.00%     50.00% |           0      0.00%     50.00% |           0      0.00%     50.00% |           0      0.00%     50.00% |           1     50.00%    100.00% |           0      0.00%    100.00% (Unspecified)
system.caches.L2Cache_Controller.NP.L1_PUTX_old::total            2                       (Unspecified)
system.caches.L2Cache_Controller.SS.L1_GET_INSTR |        5783     13.07%     13.07% |        6200     14.02%     27.09% |        5663     12.80%     39.90% |        3888      8.79%     48.69% |        5289     11.96%     60.64% |        6015     13.60%     74.24% |        5440     12.30%     86.54% |        5953     13.46%    100.00% (Unspecified)
system.caches.L2Cache_Controller.SS.L1_GET_INSTR::total        44231                       (Unspecified)
system.caches.L2Cache_Controller.SS.L1_GETS |       44152     12.90%     12.90% |       41950     12.26%     25.16% |       45378     13.26%     38.42% |       39707     11.60%     50.03% |       41923     12.25%     62.28% |       42304     12.36%     74.64% |       41733     12.20%     86.84% |       45039     13.16%    100.00% (Unspecified)
system.caches.L2Cache_Controller.SS.L1_GETS::total       342186                       (Unspecified)
system.caches.L2Cache_Controller.SS.L1_GETX |          35     54.69%     54.69% |           0      0.00%     54.69% |           0      0.00%     54.69% |           5      7.81%     62.50% |           0      0.00%     62.50% |           0      0.00%     62.50% |          21     32.81%     95.31% |           3      4.69%    100.00% (Unspecified)
system.caches.L2Cache_Controller.SS.L1_GETX::total           64                       (Unspecified)
system.caches.L2Cache_Controller.SS.L1_UPGRADE |         677     11.05%     11.05% |         708     11.55%     22.60% |         690     11.26%     33.86% |         752     12.27%     46.12% |         747     12.19%     58.31% |         748     12.20%     70.52% |         867     14.15%     84.66% |         940     15.34%    100.00% (Unspecified)
system.caches.L2Cache_Controller.SS.L1_UPGRADE::total         6129                       (Unspecified)
system.caches.L2Cache_Controller.SS.L2_Replacement |         737     12.91%     12.91% |         729     12.77%     25.68% |         662     11.60%     37.27% |         729     12.77%     50.04% |         716     12.54%     62.59% |         688     12.05%     74.64% |         733     12.84%     87.48% |         715     12.52%    100.00% (Unspecified)
system.caches.L2Cache_Controller.SS.L2_Replacement::total         5709                       (Unspecified)
system.caches.L2Cache_Controller.SS.L2_Replacement_clean |        9474     12.78%     12.78% |        9400     12.68%     25.46% |        9205     12.42%     37.88% |        9053     12.21%     50.10% |        9078     12.25%     62.35% |        9197     12.41%     74.76% |        8997     12.14%     86.89% |        9714     13.11%    100.00% (Unspecified)
system.caches.L2Cache_Controller.SS.L2_Replacement_clean::total        74118                       (Unspecified)
system.caches.L2Cache_Controller.M.L1_GET_INSTR |           5     12.20%     12.20% |           6     14.63%     26.83% |           6     14.63%     41.46% |           6     14.63%     56.10% |           7     17.07%     73.17% |           4      9.76%     82.93% |           2      4.88%     87.80% |           5     12.20%    100.00% (Unspecified)
system.caches.L2Cache_Controller.M.L1_GET_INSTR::total           41                       (Unspecified)
system.caches.L2Cache_Controller.M.L1_GETS |       11951     13.05%     13.05% |       11641     12.71%     25.76% |       11303     12.34%     38.10% |       10960     11.97%     50.06% |       11374     12.42%     62.48% |       11555     12.62%     75.09% |       11236     12.27%     87.36% |       11576     12.64%    100.00% (Unspecified)
system.caches.L2Cache_Controller.M.L1_GETS::total        91596                       (Unspecified)
system.caches.L2Cache_Controller.M.L1_GETX |         133      9.74%      9.74% |          63      4.61%     14.35% |          93      6.81%     21.16% |         103      7.54%     28.70% |         210     15.37%     44.07% |         291     21.30%     65.37% |         222     16.25%     81.63% |         251     18.37%    100.00% (Unspecified)
system.caches.L2Cache_Controller.M.L1_GETX::total         1366                       (Unspecified)
system.caches.L2Cache_Controller.M.L2_Replacement |       40681     12.61%     12.61% |       40037     12.41%     25.01% |       39470     12.23%     37.24% |       40207     12.46%     49.70% |       40034     12.40%     62.10% |       41156     12.75%     74.86% |       40278     12.48%     87.34% |       40864     12.66%    100.00% (Unspecified)
system.caches.L2Cache_Controller.M.L2_Replacement::total       322727                       (Unspecified)
system.caches.L2Cache_Controller.M.L2_Replacement_clean |      264999     12.53%     12.53% |      264924     12.52%     25.05% |      264597     12.51%     37.56% |      263904     12.47%     50.03% |      264204     12.49%     62.52% |      263955     12.48%     74.99% |      264744     12.51%     87.51% |      264280     12.49%    100.00% (Unspecified)
system.caches.L2Cache_Controller.M.L2_Replacement_clean::total      2115607                       (Unspecified)
system.caches.L2Cache_Controller.MT.L1_GET_INSTR |           0      0.00%      0.00% |           1    100.00%    100.00% |           0      0.00%    100.00% |           0      0.00%    100.00% |           0      0.00%    100.00% |           0      0.00%    100.00% |           0      0.00%    100.00% |           0      0.00%    100.00% (Unspecified)
system.caches.L2Cache_Controller.MT.L1_GET_INSTR::total            1                       (Unspecified)
system.caches.L2Cache_Controller.MT.L1_GETS |        9524     12.43%     12.43% |        9530     12.44%     24.87% |        9351     12.21%     37.08% |        9484     12.38%     49.46% |        9449     12.34%     61.80% |        9524     12.43%     74.23% |        9545     12.46%     86.69% |       10196     13.31%    100.00% (Unspecified)
system.caches.L2Cache_Controller.MT.L1_GETS::total        76603                       (Unspecified)
system.caches.L2Cache_Controller.MT.L1_GETX |           6      0.55%      0.55% |         927     85.60%     86.15% |          10      0.92%     87.07% |          38      3.51%     90.58% |           9      0.83%     91.41% |          50      4.62%     96.03% |           8      0.74%     96.77% |          35      3.23%    100.00% (Unspecified)
system.caches.L2Cache_Controller.MT.L1_GETX::total         1083                       (Unspecified)
system.caches.L2Cache_Controller.MT.L1_PUTX |      314690     12.55%     12.55% |      313621     12.51%     25.07% |      312355     12.46%     37.53% |      312063     12.45%     49.98% |      312719     12.48%     62.45% |      313909     12.52%     74.98% |      313366     12.50%     87.48% |      313882     12.52%    100.00% (Unspecified)
system.caches.L2Cache_Controller.MT.L1_PUTX::total      2506605                       (Unspecified)
system.caches.L2Cache_Controller.MT.L2_Replacement |          35     11.22%     11.22% |          28      8.97%     20.19% |          12      3.85%     24.04% |          48     15.38%     39.42% |          42     13.46%     52.88% |          39     12.50%     65.38% |          44     14.10%     79.49% |          64     20.51%    100.00% (Unspecified)
system.caches.L2Cache_Controller.MT.L2_Replacement::total          312                       (Unspecified)
system.caches.L2Cache_Controller.MT.L2_Replacement_clean |        5329     13.80%     13.80% |        5189     13.44%     27.24% |        4127     10.69%     37.93% |        4678     12.11%     50.04% |        4793     12.41%     62.45% |        5048     13.07%     75.53% |        4702     12.18%     87.70% |        4749     12.30%    100.00% (Unspecified)
system.caches.L2Cache_Controller.MT.L2_Replacement_clean::total        38615                       (Unspecified)
system.caches.L2Cache_Controller.M_I.L1_GET_INSTR |          11      6.96%      6.96% |          15      9.49%     16.46% |          18     11.39%     27.85% |           8      5.06%     32.91% |          47     29.75%     62.66% |           0      0.00%     62.66% |          25     15.82%     78.48% |          34     21.52%    100.00% (Unspecified)
system.caches.L2Cache_Controller.M_I.L1_GET_INSTR::total          158                       (Unspecified)
system.caches.L2Cache_Controller.M_I.L1_GETS |         101     66.89%     66.89% |          26     17.22%     84.11% |           2      1.32%     85.43% |           6      3.97%     89.40% |           2      1.32%     90.73% |           0      0.00%     90.73% |           3      1.99%     92.72% |          11      7.28%    100.00% (Unspecified)
system.caches.L2Cache_Controller.M_I.L1_GETS::total          151                       (Unspecified)
system.caches.L2Cache_Controller.M_I.L1_GETX |           4     50.00%     50.00% |           1     12.50%     62.50% |           0      0.00%     62.50% |           0      0.00%     62.50% |           0      0.00%     62.50% |           2     25.00%     87.50% |           0      0.00%     87.50% |           1     12.50%    100.00% (Unspecified)
system.caches.L2Cache_Controller.M_I.L1_GETX::total            8                       (Unspecified)
system.caches.L2Cache_Controller.M_I.Mem_Ack |      321255     12.56%     12.56% |      320307     12.53%     25.09% |      318073     12.44%     37.53% |      318619     12.46%     49.99% |      318867     12.47%     62.46% |      320083     12.52%     74.98% |      319498     12.49%     87.47% |      320386     12.53%    100.00% (Unspecified)
system.caches.L2Cache_Controller.M_I.Mem_Ack::total      2557088                       (Unspecified)
system.caches.L2Cache_Controller.MT_I.WB_Data |          17     11.18%     11.18% |          15      9.87%     21.05% |           1      0.66%     21.71% |          21     13.82%     35.53% |          18     11.84%     47.37% |          18     11.84%     59.21% |          22     14.47%     73.68% |          40     26.32%    100.00% (Unspecified)
system.caches.L2Cache_Controller.MT_I.WB_Data::total          152                       (Unspecified)
system.caches.L2Cache_Controller.MT_I.Ack_all |          18     11.25%     11.25% |          13      8.12%     19.38% |          11      6.88%     26.25% |          27     16.88%     43.12% |          24     15.00%     58.13% |          21     13.12%     71.25% |          22     13.75%     85.00% |          24     15.00%    100.00% (Unspecified)
system.caches.L2Cache_Controller.MT_I.Ack_all::total          160                       (Unspecified)
system.caches.L2Cache_Controller.MCT_I.L1_PUTX_old |           0      0.00%      0.00% |           1     50.00%     50.00% |           0      0.00%     50.00% |           0      0.00%     50.00% |           0      0.00%     50.00% |           0      0.00%     50.00% |           1     50.00%    100.00% |           0      0.00%    100.00% (Unspecified)
system.caches.L2Cache_Controller.MCT_I.L1_PUTX_old::total            2                       (Unspecified)
system.caches.L2Cache_Controller.MCT_I.WB_Data |         799     17.51%     17.51% |         602     13.20%     30.71% |         389      8.53%     39.24% |         487     10.68%     49.91% |         541     11.86%     61.77% |         637     13.96%     75.73% |         507     11.11%     86.85% |         600     13.15%    100.00% (Unspecified)
system.caches.L2Cache_Controller.MCT_I.WB_Data::total         4562                       (Unspecified)
system.caches.L2Cache_Controller.MCT_I.WB_Data_clean |           0      0.00%      0.00% |           1     50.00%     50.00% |           0      0.00%     50.00% |           0      0.00%     50.00% |           0      0.00%     50.00% |           0      0.00%     50.00% |           1     50.00%    100.00% |           0      0.00%    100.00% (Unspecified)
system.caches.L2Cache_Controller.MCT_I.WB_Data_clean::total            2                       (Unspecified)
system.caches.L2Cache_Controller.MCT_I.Ack_all |        4530     13.30%     13.30% |        4586     13.47%     26.77% |        3738     10.98%     37.75% |        4191     12.31%     50.06% |        4252     12.49%     62.54% |        4411     12.95%     75.50% |        4194     12.32%     87.82% |        4149     12.18%    100.00% (Unspecified)
system.caches.L2Cache_Controller.MCT_I.Ack_all::total        34051                       (Unspecified)
system.caches.L2Cache_Controller.I_I.L1_GET_INSTR |           0      0.00%      0.00% |           0      0.00%      0.00% |           0      0.00%      0.00% |           0      0.00%      0.00% |           0      0.00%      0.00% |           0      0.00%      0.00% |           2     50.00%     50.00% |           2     50.00%    100.00% (Unspecified)
system.caches.L2Cache_Controller.I_I.L1_GET_INSTR::total            4                       (Unspecified)
system.caches.L2Cache_Controller.I_I.L1_GETS |           0      0.00%      0.00% |           0      0.00%      0.00% |           0      0.00%      0.00% |           1    100.00%    100.00% |           0      0.00%    100.00% |           0      0.00%    100.00% |           0      0.00%    100.00% |           0      0.00%    100.00% (Unspecified)
system.caches.L2Cache_Controller.I_I.L1_GETS::total            1                       (Unspecified)
system.caches.L2Cache_Controller.I_I.Ack |       26182     13.22%     13.22% |       25326     12.79%     26.01% |       24887     12.57%     38.57% |       23611     11.92%     50.49% |       24040     12.14%     62.63% |       24440     12.34%     74.97% |       23700     11.97%     86.94% |       25875     13.06%    100.00% (Unspecified)
system.caches.L2Cache_Controller.I_I.Ack::total       198061                       (Unspecified)
system.caches.L2Cache_Controller.I_I.Ack_all |        9474     12.78%     12.78% |        9400     12.68%     25.46% |        9205     12.42%     37.88% |        9053     12.21%     50.10% |        9078     12.25%     62.35% |        9197     12.41%     74.76% |        8997     12.14%     86.89% |        9714     13.11%    100.00% (Unspecified)
system.caches.L2Cache_Controller.I_I.Ack_all::total        74118                       (Unspecified)
system.caches.L2Cache_Controller.S_I.Ack |        2660     14.37%     14.37% |        2367     12.79%     27.16% |        2182     11.79%     38.94% |        2305     12.45%     51.40% |        2152     11.63%     63.02% |        2166     11.70%     74.72% |        2411     13.02%     87.75% |        2268     12.25%    100.00% (Unspecified)
system.caches.L2Cache_Controller.S_I.Ack::total        18511                       (Unspecified)
system.caches.L2Cache_Controller.S_I.Ack_all |         737     12.91%     12.91% |         729     12.77%     25.68% |         662     11.60%     37.27% |         729     12.77%     50.04% |         716     12.54%     62.59% |         688     12.05%     74.64% |         733     12.84%     87.48% |         715     12.52%    100.00% (Unspecified)
system.caches.L2Cache_Controller.S_I.Ack_all::total         5709                       (Unspecified)
system.caches.L2Cache_Controller.ISS.L1_GETS |         340     26.50%     26.50% |         182     14.19%     40.69% |         181     14.11%     54.79% |         131     10.21%     65.00% |          84      6.55%     71.55% |         101      7.87%     79.42% |          70      5.46%     84.88% |         194     15.12%    100.00% (Unspecified)
system.caches.L2Cache_Controller.ISS.L1_GETS::total         1283                       (Unspecified)
system.caches.L2Cache_Controller.ISS.L1_GETX |           0      0.00%      0.00% |           0      0.00%      0.00% |           0      0.00%      0.00% |           0      0.00%      0.00% |           0      0.00%      0.00% |           0      0.00%      0.00% |           1    100.00%    100.00% |           0      0.00%    100.00% (Unspecified)
system.caches.L2Cache_Controller.ISS.L1_GETX::total            1                       (Unspecified)
system.caches.L2Cache_Controller.ISS.Mem_Data |      318388     12.54%     12.54% |      318002     12.52%     25.06% |      316726     12.47%     37.53% |      316866     12.48%     50.01% |      316848     12.48%     62.49% |      317144     12.49%     74.98% |      317522     12.50%     87.48% |      317880     12.52%    100.00% (Unspecified)
system.caches.L2Cache_Controller.ISS.Mem_Data::total      2539376                       (Unspecified)
system.caches.L2Cache_Controller.IS.L1_GET_INSTR |        1020     13.23%     13.23% |        1042     13.51%     26.74% |         891     11.56%     38.30% |         790     10.25%     48.55% |        1149     14.90%     63.45% |        1023     13.27%     76.72% |         960     12.45%     89.17% |         835     10.83%    100.00% (Unspecified)
system.caches.L2Cache_Controller.IS.L1_GET_INSTR::total         7710                       (Unspecified)
system.caches.L2Cache_Controller.IS.L1_GETS |         706     37.57%     37.57% |         370     19.69%     57.26% |         147      7.82%     65.09% |         147      7.82%     72.91% |          68      3.62%     76.53% |         151      8.04%     84.57% |          73      3.89%     88.45% |         217     11.55%    100.00% (Unspecified)
system.caches.L2Cache_Controller.IS.L1_GETS::total         1879                       (Unspecified)
system.caches.L2Cache_Controller.IS.Mem_Data |        1324     15.16%     15.16% |        1211     13.87%     29.03% |        1112     12.74%     41.77% |         943     10.80%     52.57% |        1008     11.55%     64.12% |        1007     11.53%     75.65% |         974     11.16%     86.81% |        1152     13.19%    100.00% (Unspecified)
system.caches.L2Cache_Controller.IS.Mem_Data::total         8731                       (Unspecified)
system.caches.L2Cache_Controller.IM.L1_GETX |           0      0.00%      0.00% |          14     93.33%     93.33% |           0      0.00%     93.33% |           1      6.67%    100.00% |           0      0.00%    100.00% |           0      0.00%    100.00% |           0      0.00%    100.00% |           0      0.00%    100.00% (Unspecified)
system.caches.L2Cache_Controller.IM.L1_GETX::total           15                       (Unspecified)
system.caches.L2Cache_Controller.IM.Mem_Data |        1543     17.18%     17.18% |        1094     12.18%     29.36% |         235      2.62%     31.98% |         810      9.02%     41.00% |        1011     11.26%     52.25% |        1932     21.51%     73.77% |        1002     11.16%     84.92% |        1354     15.08%    100.00% (Unspecified)
system.caches.L2Cache_Controller.IM.Mem_Data::total         8981                       (Unspecified)
system.caches.L2Cache_Controller.SS_MB.L1_GETS |          15      4.79%      4.79% |           0      0.00%      4.79% |           0      0.00%      4.79% |          24      7.67%     12.46% |          34     10.86%     23.32% |           0      0.00%     23.32% |         213     68.05%     91.37% |          27      8.63%    100.00% (Unspecified)
system.caches.L2Cache_Controller.SS_MB.L1_GETS::total          313                       (Unspecified)
system.caches.L2Cache_Controller.SS_MB.L1_GETX |           0      0.00%      0.00% |           0      0.00%      0.00% |           0      0.00%      0.00% |           0      0.00%      0.00% |           0      0.00%      0.00% |           0      0.00%      0.00% |           0      0.00%      0.00% |           7    100.00%    100.00% (Unspecified)
system.caches.L2Cache_Controller.SS_MB.L1_GETX::total            7                       (Unspecified)
system.caches.L2Cache_Controller.SS_MB.L1_UPGRADE |           0      0.00%      0.00% |           0      0.00%      0.00% |           0      0.00%      0.00% |           1     33.33%     33.33% |           0      0.00%     33.33% |           0      0.00%     33.33% |           0      0.00%     33.33% |           2     66.67%    100.00% (Unspecified)
system.caches.L2Cache_Controller.SS_MB.L1_UPGRADE::total            3                       (Unspecified)
system.caches.L2Cache_Controller.SS_MB.Exclusive_Unblock |         712     11.50%     11.50% |         708     11.43%     22.93% |         690     11.14%     34.07% |         757     12.22%     46.29% |         747     12.06%     58.36% |         748     12.08%     70.43% |         888     14.34%     84.77% |         943     15.23%    100.00% (Unspecified)
system.caches.L2Cache_Controller.SS_MB.Exclusive_Unblock::total         6193                       (Unspecified)
system.caches.L2Cache_Controller.MT_MB.L1_GETS |           9     36.00%     36.00% |           2      8.00%     44.00% |           2      8.00%     52.00% |           5     20.00%     72.00% |           2      8.00%     80.00% |           2      8.00%     88.00% |           0      0.00%     88.00% |           3     12.00%    100.00% (Unspecified)
system.caches.L2Cache_Controller.MT_MB.L1_GETS::total           25                       (Unspecified)
system.caches.L2Cache_Controller.MT_MB.L1_GETX |           0      0.00%      0.00% |          75     60.00%     60.00% |           0      0.00%     60.00% |           0      0.00%     60.00% |           0      0.00%     60.00% |           0      0.00%     60.00% |           0      0.00%     60.00% |          50     40.00%    100.00% (Unspecified)
system.caches.L2Cache_Controller.MT_MB.L1_GETX::total          125                       (Unspecified)
system.caches.L2Cache_Controller.MT_MB.Exclusive_Unblock |      332021     12.57%     12.57% |      331727     12.55%     25.12% |      328367     12.43%     37.55% |      328777     12.44%     49.99% |      329452     12.47%     62.46% |      330972     12.53%     74.98% |      329990     12.49%     87.47% |      331096     12.53%    100.00% (Unspecified)
system.caches.L2Cache_Controller.MT_MB.Exclusive_Unblock::total      2642402                       (Unspecified)
system.caches.L2Cache_Controller.MT_IIB.L1_GET_INSTR |           0      0.00%      0.00% |           2    100.00%    100.00% |           0      0.00%    100.00% |           0      0.00%    100.00% |           0      0.00%    100.00% |           0      0.00%    100.00% |           0      0.00%    100.00% |           0      0.00%    100.00% (Unspecified)
system.caches.L2Cache_Controller.MT_IIB.L1_GET_INSTR::total            2                       (Unspecified)
system.caches.L2Cache_Controller.MT_IIB.L1_GETS |          69     18.90%     18.90% |          38     10.41%     29.32% |           3      0.82%     30.14% |           4      1.10%     31.23% |          32      8.77%     40.00% |           4      1.10%     41.10% |         167     45.75%     86.85% |          48     13.15%    100.00% (Unspecified)
system.caches.L2Cache_Controller.MT_IIB.L1_GETS::total          365                       (Unspecified)
system.caches.L2Cache_Controller.MT_IIB.L1_GETX |           0      0.00%      0.00% |           0      0.00%      0.00% |           0      0.00%      0.00% |           1    100.00%    100.00% |           0      0.00%    100.00% |           0      0.00%    100.00% |           0      0.00%    100.00% |           0      0.00%    100.00% (Unspecified)
system.caches.L2Cache_Controller.MT_IIB.L1_GETX::total            1                       (Unspecified)
system.caches.L2Cache_Controller.MT_IIB.WB_Data |         713     12.45%     12.45% |         690     12.05%     24.50% |         597     10.42%     34.92% |         718     12.54%     47.46% |         677     11.82%     59.28% |         639     11.16%     70.44% |         802     14.00%     84.44% |         891     15.56%    100.00% (Unspecified)
system.caches.L2Cache_Controller.MT_IIB.WB_Data::total         5727                       (Unspecified)
system.caches.L2Cache_Controller.MT_IIB.WB_Data_clean |        8811     12.43%     12.43% |        8841     12.48%     24.91% |        8754     12.35%     37.26% |        8760     12.36%     49.62% |        8768     12.37%     62.00% |        8885     12.54%     74.53% |        8741     12.33%     86.87% |        9305     13.13%    100.00% (Unspecified)
system.caches.L2Cache_Controller.MT_IIB.WB_Data_clean::total        70865                       (Unspecified)
system.caches.L2Cache_Controller.MT_IIB.Unblock |           0      0.00%      0.00% |           0      0.00%      0.00% |           0      0.00%      0.00% |           6     50.00%     50.00% |           4     33.33%     83.33% |           0      0.00%     83.33% |           2     16.67%    100.00% |           0      0.00%    100.00% (Unspecified)
system.caches.L2Cache_Controller.MT_IIB.Unblock::total           12                       (Unspecified)
system.caches.L2Cache_Controller.MT_IB.WB_Data |           0      0.00%      0.00% |           0      0.00%      0.00% |           0      0.00%      0.00% |           5     45.45%     45.45% |           4     36.36%     81.82% |           0      0.00%     81.82% |           2     18.18%    100.00% |           0      0.00%    100.00% (Unspecified)
system.caches.L2Cache_Controller.MT_IB.WB_Data::total           11                       (Unspecified)
system.caches.L2Cache_Controller.MT_IB.WB_Data_clean |           0      0.00%      0.00% |           0      0.00%      0.00% |           0      0.00%      0.00% |           1    100.00%    100.00% |           0      0.00%    100.00% |           0      0.00%    100.00% |           0      0.00%    100.00% |           0      0.00%    100.00% (Unspecified)
system.caches.L2Cache_Controller.MT_IB.WB_Data_clean::total            1                       (Unspecified)
system.caches.L2Cache_Controller.MT_SB.L1_GETS |          17     54.84%     54.84% |           8     25.81%     80.65% |           1      3.23%     83.87% |           0      0.00%     83.87% |           0      0.00%     83.87% |           1      3.23%     87.10% |           4     12.90%    100.00% |           0      0.00%    100.00% (Unspecified)
system.caches.L2Cache_Controller.MT_SB.L1_GETS::total           31                       (Unspecified)
system.caches.L2Cache_Controller.MT_SB.L1_UPGRADE |           1      2.17%      2.17% |           0      0.00%      2.17% |           0      0.00%      2.17% |           3      6.52%      8.70% |           0      0.00%      8.70% |           0      0.00%      8.70% |          42     91.30%    100.00% |           0      0.00%    100.00% (Unspecified)
system.caches.L2Cache_Controller.MT_SB.L1_UPGRADE::total           46                       (Unspecified)
system.caches.L2Cache_Controller.MT_SB.Unblock |        9524     12.43%     12.43% |        9531     12.44%     24.88% |        9351     12.21%     37.09% |        9478     12.37%     49.46% |        9445     12.33%     61.79% |        9524     12.43%     74.23% |        9543     12.46%     86.69% |       10196     13.31%    100.00% (Unspecified)
system.caches.L2Cache_Controller.MT_SB.Unblock::total        76592                       (Unspecified)
system.caches.RequestType.LD.latency_hist_seqr::bucket_size          512                       (Unspecified)
system.caches.RequestType.LD.latency_hist_seqr::max_bucket         5119                       (Unspecified)
system.caches.RequestType.LD.latency_hist_seqr::samples     79831160                       (Unspecified)
system.caches.RequestType.LD.latency_hist_seqr::mean    22.238083                       (Unspecified)
system.caches.RequestType.LD.latency_hist_seqr::gmean     1.248259                       (Unspecified)
system.caches.RequestType.LD.latency_hist_seqr::stdev   130.346634                       (Unspecified)
system.caches.RequestType.LD.latency_hist_seqr |    78010528     97.72%     97.72% |     1568875      1.97%     99.68% |      155816      0.20%     99.88% |       77542      0.10%     99.98% |       13393      0.02%     99.99% |        4419      0.01%    100.00% |         494      0.00%    100.00% |          79      0.00%    100.00% |          14      0.00%    100.00% |           0      0.00%    100.00% (Unspecified)
system.caches.RequestType.LD.latency_hist_seqr::total     79831160                       (Unspecified)
system.caches.RequestType.LD.hit_latency_hist_seqr::bucket_size            1                       (Unspecified)
system.caches.RequestType.LD.hit_latency_hist_seqr::max_bucket            9                       (Unspecified)
system.caches.RequestType.LD.hit_latency_hist_seqr::samples     76776954                       (Unspecified)
system.caches.RequestType.LD.hit_latency_hist_seqr::mean     1.000496                       (Unspecified)
system.caches.RequestType.LD.hit_latency_hist_seqr::gmean     1.000344                       (Unspecified)
system.caches.RequestType.LD.hit_latency_hist_seqr::stdev     0.022271                       (Unspecified)
system.caches.RequestType.LD.hit_latency_hist_seqr |           0      0.00%      0.00% |    76738854     99.95%     99.95% |       38100      0.05%    100.00% |           0      0.00%    100.00% |           0      0.00%    100.00% |           0      0.00%    100.00% |           0      0.00%    100.00% |           0      0.00%    100.00% |           0      0.00%    100.00% |           0      0.00%    100.00% (Unspecified)
system.caches.RequestType.LD.hit_latency_hist_seqr::total     76776954                       (Unspecified)
system.caches.RequestType.LD.miss_latency_hist_seqr::bucket_size          512                       (Unspecified)
system.caches.RequestType.LD.miss_latency_hist_seqr::max_bucket         5119                       (Unspecified)
system.caches.RequestType.LD.miss_latency_hist_seqr::samples      3054206                       (Unspecified)
system.caches.RequestType.LD.miss_latency_hist_seqr::mean   556.110794                       (Unspecified)
system.caches.RequestType.LD.miss_latency_hist_seqr::gmean   326.188633                       (Unspecified)
system.caches.RequestType.LD.miss_latency_hist_seqr::stdev   384.362606                       (Unspecified)
system.caches.RequestType.LD.miss_latency_hist_seqr |     1233574     40.39%     40.39% |     1568875     51.37%     91.76% |      155816      5.10%     96.86% |       77542      2.54%     99.40% |       13393      0.44%     99.84% |        4419      0.14%     99.98% |         494      0.02%    100.00% |          79      0.00%    100.00% |          14      0.00%    100.00% |           0      0.00%    100.00% (Unspecified)
system.caches.RequestType.LD.miss_latency_hist_seqr::total      3054206                       (Unspecified)
system.caches.RequestType.ST.latency_hist_seqr::bucket_size          512                       (Unspecified)
system.caches.RequestType.ST.latency_hist_seqr::max_bucket         5119                       (Unspecified)
system.caches.RequestType.ST.latency_hist_seqr::samples      2584675                       (Unspecified)
system.caches.RequestType.ST.latency_hist_seqr::mean     2.589122                       (Unspecified)
system.caches.RequestType.ST.latency_hist_seqr::gmean     1.150788                       (Unspecified)
system.caches.RequestType.ST.latency_hist_seqr::stdev    37.989314                       (Unspecified)
system.caches.RequestType.ST.latency_hist_seqr |     2581436     99.87%     99.87% |        2235      0.09%     99.96% |         651      0.03%     99.99% |         246      0.01%    100.00% |          75      0.00%    100.00% |          29      0.00%    100.00% |           2      0.00%    100.00% |           1      0.00%    100.00% |           0      0.00%    100.00% |           0      0.00%    100.00% (Unspecified)
system.caches.RequestType.ST.latency_hist_seqr::total      2584675                       (Unspecified)
system.caches.RequestType.ST.hit_latency_hist_seqr::bucket_size          256                       (Unspecified)
system.caches.RequestType.ST.hit_latency_hist_seqr::max_bucket         2559                       (Unspecified)
system.caches.RequestType.ST.hit_latency_hist_seqr::samples      2573284                       (Unspecified)
system.caches.RequestType.ST.hit_latency_hist_seqr::mean     1.177597                       (Unspecified)
system.caches.RequestType.ST.hit_latency_hist_seqr::gmean     1.129325                       (Unspecified)
system.caches.RequestType.ST.hit_latency_hist_seqr::stdev     1.297995                       (Unspecified)
system.caches.RequestType.ST.hit_latency_hist_seqr |     2573274    100.00%    100.00% |           7      0.00%    100.00% |           1      0.00%    100.00% |           1      0.00%    100.00% |           0      0.00%    100.00% |           1      0.00%    100.00% |           0      0.00%    100.00% |           0      0.00%    100.00% |           0      0.00%    100.00% |           0      0.00%    100.00% (Unspecified)
system.caches.RequestType.ST.hit_latency_hist_seqr::total      2573284                       (Unspecified)
system.caches.RequestType.ST.miss_latency_hist_seqr::bucket_size          512                       (Unspecified)
[...]
system.o3Cpu7.iew.predictedTakenIncorrect       357410                       # Number of branches that were predicted taken incorrectly (Count)
system.o3Cpu7.iew.predictedNotTakenIncorrect       376928                       # Number of branches that were predicted not taken incorrectly (Count)
system.o3Cpu7.iew.branchMispredicts            734338                       # Number of branch mispredicts detected at execute (Count)
system.o3Cpu7.iew.instsToCommit              65141450                       # Cumulative count of insts sent to commit (Count)
system.o3Cpu7.iew.writebackCount             64730168                       # Cumulative count of insts written-back (Count)
system.o3Cpu7.iew.producerInst               52625589                       # Number of instructions producing a value (Count)
system.o3Cpu7.iew.consumerInst               77137595                       # Number of instructions consuming a value (Count)
system.o3Cpu7.iew.wbRate                     0.316910                       # Insts written-back per cycle ((Count/Cycle))
system.o3Cpu7.iew.wbFanout                   0.682230                       # Average fanout of values written-back ((Count/Count))
system.o3Cpu7.interrupts.clk_domain.clock         3200                       # Clock period in ticks (Tick)
system.o3Cpu7.lsq0.forwLoads                   151240                       # Number of loads that had data forwarded from stores (Count)
system.o3Cpu7.lsq0.squashedLoads              3900223                       # Number of loads squashed (Count)
system.o3Cpu7.lsq0.ignoredResponses                33                       # Number of memory responses ignored because the instruction is squashed (Count)
system.o3Cpu7.lsq0.memOrderViolation              132                       # Number of memory ordering violations (Count)
system.o3Cpu7.lsq0.squashedStores              338146                       # Number of stores squashed (Count)
system.o3Cpu7.lsq0.rescheduledLoads                38                       # Number of loads that were rescheduled (Count)
system.o3Cpu7.lsq0.blockedByCache                   5                       # Number of times an access to memory failed due to the cache being blocked (Count)
system.o3Cpu7.lsq0.loadToUse::samples         8274292                       # Distribution of cycle latency between the first time a load is issued and its completion (Unspecified)
system.o3Cpu7.lsq0.loadToUse::mean          42.148542                       # Distribution of cycle latency between the first time a load is issued and its completion (Unspecified)
system.o3Cpu7.lsq0.loadToUse::stdev        169.089707                       # Distribution of cycle latency between the first time a load is issued and its completion (Unspecified)
system.o3Cpu7.lsq0.loadToUse::0-9             7684248     92.87%     92.87% # Distribution of cycle latency between the first time a load is issued and its completion (Unspecified)
system.o3Cpu7.lsq0.loadToUse::10-19             36996      0.45%     93.32% # Distribution of cycle latency between the first time a load is issued and its completion (Unspecified)
system.o3Cpu7.lsq0.loadToUse::20-29             26180      0.32%     93.63% # Distribution of cycle latency between the first time a load is issued and its completion (Unspecified)
system.o3Cpu7.lsq0.loadToUse::30-39              1634      0.02%     93.65% # Distribution of cycle latency between the first time a load is issued and its completion (Unspecified)
system.o3Cpu7.lsq0.loadToUse::40-49               995      0.01%     93.66% # Distribution of cycle latency between the first time a load is issued and its completion (Unspecified)
system.o3Cpu7.lsq0.loadToUse::50-59               462      0.01%     93.67% # Distribution of cycle latency between the first time a load is issued and its completion (Unspecified)
system.o3Cpu7.lsq0.loadToUse::60-69               373      0.00%     93.67% # Distribution of cycle latency between the first time a load is issued and its completion (Unspecified)
system.o3Cpu7.lsq0.loadToUse::70-79               594      0.01%     93.68% # Distribution of cycle latency between the first time a load is issued and its completion (Unspecified)
system.o3Cpu7.lsq0.loadToUse::80-89               356      0.00%     93.69% # Distribution of cycle latency between the first time a load is issued and its completion (Unspecified)
system.o3Cpu7.lsq0.loadToUse::90-99               283      0.00%     93.69% # Distribution of cycle latency between the first time a load is issued and its completion (Unspecified)
system.o3Cpu7.lsq0.loadToUse::100-109             289      0.00%     93.69% # Distribution of cycle latency between the first time a load is issued and its completion (Unspecified)
system.o3Cpu7.lsq0.loadToUse::110-119             335      0.00%     93.70% # Distribution of cycle latency between the first time a load is issued and its completion (Unspecified)
system.o3Cpu7.lsq0.loadToUse::120-129             360      0.00%     93.70% # Distribution of cycle latency between the first time a load is issued and its completion (Unspecified)
system.o3Cpu7.lsq0.loadToUse::130-139             392      0.00%     93.71% # Distribution of cycle latency between the first time a load is issued and its completion (Unspecified)
system.o3Cpu7.lsq0.loadToUse::140-149             386      0.00%     93.71% # Distribution of cycle latency between the first time a load is issued and its completion (Unspecified)
system.o3Cpu7.lsq0.loadToUse::150-159             421      0.01%     93.72% # Distribution of cycle latency between the first time a load is issued and its completion (Unspecified)
system.o3Cpu7.lsq0.loadToUse::160-169             466      0.01%     93.72% # Distribution of cycle latency between the first time a load is issued and its completion (Unspecified)
system.o3Cpu7.lsq0.loadToUse::170-179             485      0.01%     93.73% # Distribution of cycle latency between the first time a load is issued and its completion (Unspecified)
system.o3Cpu7.lsq0.loadToUse::180-189             649      0.01%     93.73% # Distribution of cycle latency between the first time a load is issued and its completion (Unspecified)
system.o3Cpu7.lsq0.loadToUse::190-199             625      0.01%     93.74% # Distribution of cycle latency between the first time a load is issued and its completion (Unspecified)
system.o3Cpu7.lsq0.loadToUse::200-209             539      0.01%     93.75% # Distribution of cycle latency between the first time a load is issued and its completion (Unspecified)
system.o3Cpu7.lsq0.loadToUse::210-219             604      0.01%     93.76% # Distribution of cycle latency between the first time a load is issued and its completion (Unspecified)
system.o3Cpu7.lsq0.loadToUse::220-229             609      0.01%     93.76% # Distribution of cycle latency between the first time a load is issued and its completion (Unspecified)
system.o3Cpu7.lsq0.loadToUse::230-239             578      0.01%     93.77% # Distribution of cycle latency between the first time a load is issued and its completion (Unspecified)
system.o3Cpu7.lsq0.loadToUse::240-249             581      0.01%     93.78% # Distribution of cycle latency between the first time a load is issued and its completion (Unspecified)
system.o3Cpu7.lsq0.loadToUse::250-259             458      0.01%     93.78% # Distribution of cycle latency between the first time a load is issued and its completion (Unspecified)
system.o3Cpu7.lsq0.loadToUse::260-269             462      0.01%     93.79% # Distribution of cycle latency between the first time a load is issued and its completion (Unspecified)
system.o3Cpu7.lsq0.loadToUse::270-279             520      0.01%     93.80% # Distribution of cycle latency between the first time a load is issued and its completion (Unspecified)
system.o3Cpu7.lsq0.loadToUse::280-289             488      0.01%     93.80% # Distribution of cycle latency between the first time a load is issued and its completion (Unspecified)
system.o3Cpu7.lsq0.loadToUse::290-299             570      0.01%     93.81% # Distribution of cycle latency between the first time a load is issued and its completion (Unspecified)
system.o3Cpu7.lsq0.loadToUse::overflows        512354      6.19%    100.00% # Distribution of cycle latency between the first time a load is issued and its completion (Unspecified)
system.o3Cpu7.lsq0.loadToUse::min_value             2                       # Distribution of cycle latency between the first time a load is issued and its completion (Unspecified)
system.o3Cpu7.lsq0.loadToUse::max_value          5284                       # Distribution of cycle latency between the first time a load is issued and its completion (Unspecified)
system.o3Cpu7.lsq0.loadToUse::total           8274292                       # Distribution of cycle latency between the first time a load is issued and its completion (Unspecified)
system.o3Cpu7.mmu.dtb.rdAccesses             11030318                       # TLB accesses on read requests (Count)
system.o3Cpu7.mmu.dtb.wrAccesses               480180                       # TLB accesses on write requests (Count)
system.o3Cpu7.mmu.dtb.rdMisses                  44514                       # TLB misses on read requests (Count)
system.o3Cpu7.mmu.dtb.wrMisses                   1146                       # TLB misses on write requests (Count)
system.o3Cpu7.mmu.dtb.walker.power_state.pwrStateResidencyTicks::UNDEFINED  42118193599                       # Cumulative time (in ticks) in various power states (Tick)
system.o3Cpu7.mmu.itb.rdAccesses                    0                       # TLB accesses on read requests (Count)
system.o3Cpu7.mmu.itb.wrAccesses              9983463                       # TLB accesses on write requests (Count)
system.o3Cpu7.mmu.itb.rdMisses                      0                       # TLB misses on read requests (Count)
system.o3Cpu7.mmu.itb.wrMisses                    218                       # TLB misses on write requests (Count)
system.o3Cpu7.mmu.itb.walker.power_state.pwrStateResidencyTicks::UNDEFINED  42118193599                       # Cumulative time (in ticks) in various power states (Tick)
system.o3Cpu7.power_state.numTransitions            4                       # Number of power state transitions (Count)
system.o3Cpu7.power_state.ticksClkGated::samples            2                       # Distribution of time spent in the clock gated state (Tick)
system.o3Cpu7.power_state.ticksClkGated::mean    128710300                       # Distribution of time spent in the clock gated state (Tick)
system.o3Cpu7.power_state.ticksClkGated::stdev 133245929.054587                       # Distribution of time spent in the clock gated state (Tick)
system.o3Cpu7.power_state.ticksClkGated::1000-5e+10            2    100.00%    100.00% # Distribution of time spent in the clock gated state (Tick)
system.o3Cpu7.power_state.ticksClkGated::min_value     34491200                       # Distribution of time spent in the clock gated state (Tick)
system.o3Cpu7.power_state.ticksClkGated::max_value    222929400                       # Distribution of time spent in the clock gated state (Tick)
system.o3Cpu7.power_state.ticksClkGated::total            2                       # Distribution of time spent in the clock gated state (Tick)
system.o3Cpu7.power_state.pwrStateResidencyTicks::ON  24316292200                       # Cumulative time (in ticks) in various power states (Tick)
system.o3Cpu7.power_state.pwrStateResidencyTicks::CLK_GATED    257420600                       # Cumulative time (in ticks) in various power states (Tick)
system.o3Cpu7.power_state.pwrStateResidencyTicks::OFF  17544480799                       # Cumulative time (in ticks) in various power states (Tick)
system.o3Cpu7.rename.squashCycles              715569                       # Number of cycles rename is squashing (Cycle)
system.o3Cpu7.rename.idleCycles               8368753                       # Number of cycles rename is idle (Cycle)
system.o3Cpu7.rename.blockCycles            162167197                       # Number of cycles rename is blocking (Cycle)
system.o3Cpu7.rename.serializeStallCycles       325070                       # count of cycles rename stalled for serializing inst (Cycle)
system.o3Cpu7.rename.runCycles               21089993                       # Number of cycles rename is running (Cycle)
system.o3Cpu7.rename.unblockCycles           11402899                       # Number of cycles rename is unblocking (Cycle)
system.o3Cpu7.rename.renamedInsts            76852091                       # Number of instructions processed by rename (Count)
system.o3Cpu7.rename.ROBFullEvents             497460                       # Number of times rename has blocked due to ROB full (Count)
system.o3Cpu7.rename.IQFullEvents             1504250                       # Number of times rename has blocked due to IQ full (Count)
system.o3Cpu7.rename.LQFullEvents             9417655                       # Number of times rename has blocked due to LQ full (Count)
system.o3Cpu7.rename.SQFullEvents               85033                       # Number of times rename has blocked due to SQ full (Count)
system.o3Cpu7.rename.renamedOperands        146264944                       # Number of destination operands rename has renamed (Count)
system.o3Cpu7.rename.lookups                273045871                       # Number of register rename lookups that rename has made (Count)
system.o3Cpu7.rename.intLookups             100110571                       # Number of integer rename lookups (Count)
system.o3Cpu7.rename.fpLookups                     98                       # Number of floating rename lookups (Count)
system.o3Cpu7.rename.committedMaps           95937244                       # Number of HB maps that are committed (Count)
system.o3Cpu7.rename.undoneMaps              50327544                       # Number of HB maps that are undone due to squashing (Count)
system.o3Cpu7.rename.serializing                 2011                       # count of serializing insts renamed (Count)
system.o3Cpu7.rename.tempSerializing             2033                       # count of temporary serializing insts renamed (Count)
system.o3Cpu7.rename.skidInsts                4698960                       # count of insts added to the skid buffer (Count)
system.o3Cpu7.rob.reads                     262939619                       # The number of ROB reads (Count)
system.o3Cpu7.rob.writes                    153251677                       # The number of ROB writes (Count)
system.o3Cpu7.thread_0.numInsts              32305796                       # Number of Instructions committed (Count)
system.o3Cpu7.thread_0.numOps                51113740                       # Number of Ops committed (Count)
system.o3Cpu7.thread_0.numMemRefs                   0                       # Number of Memory References (Count)
system.pc.bad_addr.power_state.pwrStateResidencyTicks::UNDEFINED  42118193599                       # Cumulative time (in ticks) in various power states (Tick)
system.pc.com_1.power_state.pwrStateResidencyTicks::UNDEFINED  42118193599                       # Cumulative time (in ticks) in various power states (Tick)
system.pc.default_bus.power_state.pwrStateResidencyTicks::UNDEFINED  42118193599                       # Cumulative time (in ticks) in various power states (Tick)
system.pc.empty_isa.power_state.pwrStateResidencyTicks::UNDEFINED  42118193599                       # Cumulative time (in ticks) in various power states (Tick)
system.pc.fake_com_2.power_state.pwrStateResidencyTicks::UNDEFINED  42118193599                       # Cumulative time (in ticks) in various power states (Tick)
system.pc.fake_com_3.power_state.pwrStateResidencyTicks::UNDEFINED  42118193599                       # Cumulative time (in ticks) in various power states (Tick)
system.pc.fake_com_4.power_state.pwrStateResidencyTicks::UNDEFINED  42118193599                       # Cumulative time (in ticks) in various power states (Tick)
system.pc.fake_floppy.power_state.pwrStateResidencyTicks::UNDEFINED  42118193599                       # Cumulative time (in ticks) in various power states (Tick)
system.pc.pci_host.power_state.pwrStateResidencyTicks::UNDEFINED  42118193599                       # Cumulative time (in ticks) in various power states (Tick)
system.pc.south_bridge.cmos.power_state.pwrStateResidencyTicks::UNDEFINED  42118193599                       # Cumulative time (in ticks) in various power states (Tick)
system.pc.south_bridge.dma1.power_state.pwrStateResidencyTicks::UNDEFINED  42118193599                       # Cumulative time (in ticks) in various power states (Tick)
system.pc.south_bridge.ide.disks0.IdeDisk.dmaReadFullPages            0                       # Number of full page size DMA reads (not PRD). (Count)
system.pc.south_bridge.ide.disks0.IdeDisk.dmaReadBytes            0                       # Number of bytes transfered via DMA reads (not PRD). (Byte)
system.pc.south_bridge.ide.disks0.IdeDisk.dmaReadTxs            0                       # Number of DMA read transactions (not PRD). (Count)
system.pc.south_bridge.ide.disks0.IdeDisk.dmaWriteFullPages            0                       # Number of full page size DMA writes. (Count)
system.pc.south_bridge.ide.disks0.IdeDisk.dmaWriteBytes            0                       # Number of bytes transfered via DMA writes. (Byte)
system.pc.south_bridge.ide.disks0.IdeDisk.dmaWriteTxs            0                       # Number of DMA write transactions. (Count)
system.pc.south_bridge.ide.disks1.IdeDisk.dmaReadFullPages            0                       # Number of full page size DMA reads (not PRD). (Count)
system.pc.south_bridge.ide.disks1.IdeDisk.dmaReadBytes            0                       # Number of bytes transfered via DMA reads (not PRD). (Byte)
system.pc.south_bridge.ide.disks1.IdeDisk.dmaReadTxs            0                       # Number of DMA read transactions (not PRD). (Count)
system.pc.south_bridge.ide.disks1.IdeDisk.dmaWriteFullPages            0                       # Number of full page size DMA writes. (Count)
system.pc.south_bridge.ide.disks1.IdeDisk.dmaWriteBytes            0                       # Number of bytes transfered via DMA writes. (Byte)
system.pc.south_bridge.ide.disks1.IdeDisk.dmaWriteTxs            0                       # Number of DMA write transactions. (Count)
system.pc.south_bridge.ide.power_state.pwrStateResidencyTicks::UNDEFINED  42118193599                       # Cumulative time (in ticks) in various power states (Tick)
system.pc.south_bridge.io_apic.power_state.pwrStateResidencyTicks::UNDEFINED  42118193599                       # Cumulative time (in ticks) in various power states (Tick)
system.pc.south_bridge.keyboard.power_state.pwrStateResidencyTicks::UNDEFINED  42118193599                       # Cumulative time (in ticks) in various power states (Tick)
system.pc.south_bridge.pic1.power_state.pwrStateResidencyTicks::UNDEFINED  42118193599                       # Cumulative time (in ticks) in various power states (Tick)
system.pc.south_bridge.pic2.power_state.pwrStateResidencyTicks::UNDEFINED  42118193599                       # Cumulative time (in ticks) in various power states (Tick)
system.pc.south_bridge.pit.power_state.pwrStateResidencyTicks::UNDEFINED  42118193599                       # Cumulative time (in ticks) in various power states (Tick)
system.pc.south_bridge.speaker.power_state.pwrStateResidencyTicks::UNDEFINED  42118193599                       # Cumulative time (in ticks) in various power states (Tick)
system.workload.inst.arm                            0                       # number of arm instructions executed (Count)
system.workload.inst.quiesce                        0                       # number of quiesce instructions executed (Count)

---------- End Simulation Statistics   ----------
