
---------- Begin Simulation Statistics ----------
simSeconds                                   0.028315                       # Number of seconds simulated (Second)
simTicks                                  28314677150                       # Number of ticks simulated (Tick)
finalTick                                217544541506600                       # Number of ticks from beginning of simulation (restored from checkpoints and never reset) (Tick)
simFreq                                  1000000000000                       # The number of ticks per simulated second ((Tick/Second))
hostSeconds                                   8830.28                       # Real time elapsed on the host (Second)
hostTickRate                                  3206545                       # The number of ticks simulated per host second (ticks/s) ((Tick/Second))
hostMemory                                   19708640                       # Number of bytes of host memory used (Byte)
simInsts                                    238482583                       # Number of instructions simulated (Count)
simOps                                      381535260                       # Number of ops (including micro ops) simulated (Count)
hostInstRate                                    27007                       # Simulator instruction rate (inst/s) ((Count/Second))
hostOpRate                                      43208                       # Simulator op (including micro ops) rate (op/s) ((Count/Second))
system.caches.delayHistogram::bucket_size         1024                       # delay histogram for all message (Unspecified)
system.caches.delayHistogram::max_bucket        10239                       # delay histogram for all message (Unspecified)
system.caches.delayHistogram::samples        14157801                       # delay histogram for all message (Unspecified)
system.caches.delayHistogram::mean           0.227813                       # delay histogram for all message (Unspecified)
system.caches.delayHistogram::stdev          4.245661                       # delay histogram for all message (Unspecified)
system.caches.delayHistogram             |    14157789    100.00%    100.00% |           4      0.00%    100.00% |           2      0.00%    100.00% |           3      0.00%    100.00% |           1      0.00%    100.00% |           0      0.00%    100.00% |           1      0.00%    100.00% |           0      0.00%    100.00% |           1      0.00%    100.00% |           0      0.00%    100.00% # delay histogram for all message (Unspecified)
system.caches.delayHistogram::total          14157801                       # delay histogram for all message (Unspecified)
system.caches.m_outstandReqHistSeqr::bucket_size            2                       (Unspecified)
system.caches.m_outstandReqHistSeqr::max_bucket           19                       (Unspecified)
system.caches.m_outstandReqHistSeqr::samples    170790451                       (Unspecified)
system.caches.m_outstandReqHistSeqr::mean     2.453100                       (Unspecified)
system.caches.m_outstandReqHistSeqr::gmean     1.886026                       (Unspecified)
system.caches.m_outstandReqHistSeqr::stdev     2.089754                       (Unspecified)
system.caches.m_outstandReqHistSeqr      |    78088842     45.72%     45.72% |    56958730     33.35%     79.07% |    21323819     12.49%     91.56% |     8202812      4.80%     96.36% |     3315849      1.94%     98.30% |     1606528      0.94%     99.24% |     1219540      0.71%     99.96% |       57124      0.03%     99.99% |       17207      0.01%    100.00% |           0      0.00%    100.00% (Unspecified)
system.caches.m_outstandReqHistSeqr::total    170790451                       (Unspecified)
system.caches.m_latencyHistSeqr::bucket_size         1024                       (Unspecified)
system.caches.m_latencyHistSeqr::max_bucket        10239                       (Unspecified)
system.caches.m_latencyHistSeqr::samples    172155614                       (Unspecified)
system.caches.m_latencyHistSeqr::mean        8.542463                       (Unspecified)
system.caches.m_latencyHistSeqr::gmean       1.083563                       (Unspecified)
system.caches.m_latencyHistSeqr::stdev      82.273555                       (Unspecified)
system.caches.m_latencyHistSeqr          |   171899315     99.85%     99.85% |      233244      0.14%     99.99% |       21365      0.01%    100.00% |        1502      0.00%    100.00% |         155      0.00%    100.00% |          29      0.00%    100.00% |           4      0.00%    100.00% |           0      0.00%    100.00% |           0      0.00%    100.00% |           0      0.00%    100.00% (Unspecified)
system.caches.m_latencyHistSeqr::total      172155614                       (Unspecified)
system.caches.m_hitLatencyHistSeqr::bucket_size          256                       (Unspecified)
system.caches.m_hitLatencyHistSeqr::max_bucket         2559                       (Unspecified)
system.caches.m_hitLatencyHistSeqr::samples    169978779                       (Unspecified)
system.caches.m_hitLatencyHistSeqr::mean     1.009162                       (Unspecified)
system.caches.m_hitLatencyHistSeqr::gmean     1.006179                       (Unspecified)
system.caches.m_hitLatencyHistSeqr::stdev     0.458868                       (Unspecified)
system.caches.m_hitLatencyHistSeqr       |   169978705    100.00%    100.00% |          35      0.00%    100.00% |          24      0.00%    100.00% |           9      0.00%    100.00% |           3      0.00%    100.00% |           1      0.00%    100.00% |           0      0.00%    100.00% |           2      0.00%    100.00% |           0      0.00%    100.00% |           0      0.00%    100.00% (Unspecified)
system.caches.m_hitLatencyHistSeqr::total    169978779                       (Unspecified)
system.caches.m_missLatencyHistSeqr::bucket_size         1024                       (Unspecified)
system.caches.m_missLatencyHistSeqr::max_bucket        10239                       (Unspecified)
system.caches.m_missLatencyHistSeqr::samples      2176835                       (Unspecified)
system.caches.m_missLatencyHistSeqr::mean   596.782427                       (Unspecified)
system.caches.m_missLatencyHistSeqr::gmean   352.812897                       (Unspecified)
system.caches.m_missLatencyHistSeqr::stdev   429.941123                       (Unspecified)
system.caches.m_missLatencyHistSeqr      |     1920542     88.23%     88.23% |      233238     10.71%     98.94% |       21365      0.98%     99.92% |        1502      0.07%     99.99% |         155      0.01%    100.00% |          29      0.00%    100.00% |           4      0.00%    100.00% |           0      0.00%    100.00% |           0      0.00%    100.00% |           0      0.00%    100.00% (Unspecified)
system.caches.m_missLatencyHistSeqr::total      2176835                       (Unspecified)
system.caches.delayVCHist.vnet_0::bucket_size         1024                       # delay histogram for vnet_0 (Unspecified)
system.caches.delayVCHist.vnet_0::max_bucket        10239                       # delay histogram for vnet_0 (Unspecified)
system.caches.delayVCHist.vnet_0::samples      5952853                       # delay histogram for vnet_0 (Unspecified)
system.caches.delayVCHist.vnet_0::mean       0.438378                       # delay histogram for vnet_0 (Unspecified)
system.caches.delayVCHist.vnet_0::stdev      6.495080                       # delay histogram for vnet_0 (Unspecified)
system.caches.delayVCHist.vnet_0         |     5952841    100.00%    100.00% |           4      0.00%    100.00% |           2      0.00%    100.00% |           3      0.00%    100.00% |           1      0.00%    100.00% |           0      0.00%    100.00% |           1      0.00%    100.00% |           0      0.00%    100.00% |           1      0.00%    100.00% |           0      0.00%    100.00% # delay histogram for vnet_0 (Unspecified)
system.caches.delayVCHist.vnet_0::total       5952853                       # delay histogram for vnet_0 (Unspecified)
system.caches.delayVCHist.vnet_1::bucket_size            8                       # delay histogram for vnet_1 (Unspecified)
system.caches.delayVCHist.vnet_1::max_bucket           79                       # delay histogram for vnet_1 (Unspecified)
system.caches.delayVCHist.vnet_1::samples      7934807                       # delay histogram for vnet_1 (Unspecified)
system.caches.delayVCHist.vnet_1::mean       0.077589                       # delay histogram for vnet_1 (Unspecified)
system.caches.delayVCHist.vnet_1::stdev      0.675327                       # delay histogram for vnet_1 (Unspecified)
system.caches.delayVCHist.vnet_1         |     7922939     99.85%     99.85% |       10567      0.13%     99.98% |         906      0.01%    100.00% |         260      0.00%    100.00% |          97      0.00%    100.00% |          37      0.00%    100.00% |           1      0.00%    100.00% |           0      0.00%    100.00% |           0      0.00%    100.00% |           0      0.00%    100.00% # delay histogram for vnet_1 (Unspecified)
system.caches.delayVCHist.vnet_1::total       7934807                       # delay histogram for vnet_1 (Unspecified)
system.caches.delayVCHist.vnet_2::bucket_size            1                       # delay histogram for vnet_2 (Unspecified)
system.caches.delayVCHist.vnet_2::max_bucket            9                       # delay histogram for vnet_2 (Unspecified)
system.caches.delayVCHist.vnet_2::samples       270141                       # delay histogram for vnet_2 (Unspecified)
system.caches.delayVCHist.vnet_2::mean       0.000333                       # delay histogram for vnet_2 (Unspecified)
system.caches.delayVCHist.vnet_2::stdev      0.025811                       # delay histogram for vnet_2 (Unspecified)
system.caches.delayVCHist.vnet_2         |      270096     99.98%     99.98% |           0      0.00%     99.98% |          45      0.02%    100.00% |           0      0.00%    100.00% |           0      0.00%    100.00% |           0      0.00%    100.00% |           0      0.00%    100.00% |           0      0.00%    100.00% |           0      0.00%    100.00% |           0      0.00%    100.00% # delay histogram for vnet_2 (Unspecified)
system.caches.delayVCHist.vnet_2::total        270141                       # delay histogram for vnet_2 (Unspecified)
system.caches.L1Cache_Controller.Load    |    10753834     12.34%     12.34% |    11124970     12.77%     25.11% |    10977739     12.60%     37.71% |    10979790     12.60%     50.32% |    10923098     12.54%     62.85% |    10678187     12.26%     75.11% |    10870159     12.48%     87.59% |    10813402     12.41%    100.00% (Unspecified)
system.caches.L1Cache_Controller.Load::total     87121179                       (Unspecified)
system.caches.L1Cache_Controller.Ifetch  |    10368898     12.58%     12.58% |    10315184     12.51%     25.09% |    10310065     12.50%     37.59% |    10296249     12.49%     50.08% |    10300982     12.49%     62.57% |    10342375     12.54%     75.12% |    10264872     12.45%     87.57% |    10248944     12.43%    100.00% (Unspecified)
system.caches.L1Cache_Controller.Ifetch::total     82447569                       (Unspecified)
system.caches.L1Cache_Controller.Store   |      320897     12.40%     12.40% |      315004     12.18%     24.58% |      314255     12.15%     36.73% |      314034     12.14%     48.87% |      333557     12.89%     61.76% |      361381     13.97%     75.73% |      314136     12.14%     87.88% |      313603     12.12%    100.00% (Unspecified)
system.caches.L1Cache_Controller.Store::total      2586867                       (Unspecified)
system.caches.L1Cache_Controller.Inv     |       30234     13.42%     13.42% |       27804     12.35%     25.77% |       27679     12.29%     38.06% |       27676     12.29%     50.35% |       27671     12.29%     62.63% |       28723     12.75%     75.39% |       27667     12.28%     87.67% |       27767     12.33%    100.00% (Unspecified)
system.caches.L1Cache_Controller.Inv::total       225221                       (Unspecified)
system.caches.L1Cache_Controller.L1_Replacement |      272935     12.83%     12.83% |      266257     12.52%     25.34% |      266002     12.50%     37.85% |      265371     12.47%     50.32% |      264149     12.42%     62.74% |      265768     12.49%     75.23% |      263440     12.38%     87.61% |      263531     12.39%    100.00% (Unspecified)
system.caches.L1Cache_Controller.L1_Replacement::total      2127453                       (Unspecified)
system.caches.L1Cache_Controller.Fwd_GETX |         125     11.57%     11.57% |         139     12.87%     24.44% |         144     13.33%     37.78% |         138     12.78%     50.56% |         141     13.06%     63.61% |         120     11.11%     74.72% |         138     12.78%     87.50% |         135     12.50%    100.00% (Unspecified)
system.caches.L1Cache_Controller.Fwd_GETX::total         1080                       (Unspecified)
system.caches.L1Cache_Controller.Fwd_GETS |        6192     14.12%     14.12% |        5726     13.06%     27.19% |        5599     12.77%     39.96% |        5472     12.48%     52.44% |        5270     12.02%     64.46% |        5281     12.05%     76.51% |        5195     11.85%     88.36% |        5105     11.64%    100.00% (Unspecified)
system.caches.L1Cache_Controller.Fwd_GETS::total        43840                       (Unspecified)
system.caches.L1Cache_Controller.Data    |          57     91.94%     91.94% |           0      0.00%     91.94% |           1      1.61%     93.55% |           1      1.61%     95.16% |           0      0.00%     95.16% |           2      3.23%     98.39% |           0      0.00%     98.39% |           1      1.61%    100.00% (Unspecified)
system.caches.L1Cache_Controller.Data::total           62                       (Unspecified)
system.caches.L1Cache_Controller.Data_Exclusive |      241226     12.77%     12.77% |      236445     12.51%     25.28% |      236395     12.51%     37.79% |      236092     12.50%     50.29% |      234647     12.42%     62.71% |      235278     12.45%     75.16% |      234674     12.42%     87.58% |      234716     12.42%    100.00% (Unspecified)
system.caches.L1Cache_Controller.Data_Exclusive::total      1889473                       (Unspecified)
system.caches.L1Cache_Controller.DataS_fromL1 |        5366     12.24%     12.24% |        5646     12.88%     25.12% |        5592     12.76%     37.87% |        5475     12.49%     50.36% |        5418     12.36%     62.72% |        5472     12.48%     75.20% |        5416     12.35%     87.56% |        5455     12.44%    100.00% (Unspecified)
system.caches.L1Cache_Controller.DataS_fromL1::total        43840                       (Unspecified)
system.caches.L1Cache_Controller.Data_all_Acks |       30559     13.27%     13.27% |       28774     12.49%     25.76% |       28575     12.40%     38.16% |       28397     12.33%     50.49% |       28673     12.45%     62.93% |       29565     12.83%     75.77% |       27929     12.12%     87.89% |       27897     12.11%    100.00% (Unspecified)
system.caches.L1Cache_Controller.Data_all_Acks::total       230369                       (Unspecified)
system.caches.L1Cache_Controller.Ack     |       10087     21.37%     21.37% |        7016     14.86%     36.23% |        5943     12.59%     48.82% |        5294     11.21%     60.03% |        5235     11.09%     71.12% |        4236      8.97%     80.09% |        4698      9.95%     90.05% |        4699      9.95%    100.00% (Unspecified)
system.caches.L1Cache_Controller.Ack::total        47208                       (Unspecified)
system.caches.L1Cache_Controller.Ack_all |        2298     17.47%     17.47% |        1846     14.03%     31.51% |        1739     13.22%     44.73% |        1569     11.93%     56.66% |        1521     11.56%     68.22% |        1285      9.77%     77.99% |        1469     11.17%     89.16% |        1426     10.84%    100.00% (Unspecified)
system.caches.L1Cache_Controller.Ack_all::total        13153                       (Unspecified)
system.caches.L1Cache_Controller.WB_Ack  |      236062     12.95%     12.95% |      227330     12.47%     25.43% |      227444     12.48%     37.91% |      227289     12.47%     50.38% |      225951     12.40%     62.78% |      226588     12.43%     75.22% |      225787     12.39%     87.61% |      225874     12.39%    100.00% (Unspecified)
system.caches.L1Cache_Controller.WB_Ack::total      1822325                       (Unspecified)
system.caches.L1Cache_Controller.NP.Load |      270403     12.82%     12.82% |      264373     12.53%     25.35% |      264066     12.52%     37.86% |      263431     12.49%     50.35% |      261779     12.41%     62.76% |      262568     12.45%     75.20% |      261581     12.40%     87.60% |      261625     12.40%    100.00% (Unspecified)
system.caches.L1Cache_Controller.NP.Load::total      2109826                       (Unspecified)
system.caches.L1Cache_Controller.NP.Ifetch |        1961     12.73%     12.73% |        1726     11.20%     23.94% |        1756     11.40%     35.33% |        1758     11.41%     46.75% |        2202     14.29%     61.04% |        2560     16.62%     77.66% |        1705     11.07%     88.73% |        1736     11.27%    100.00% (Unspecified)
system.caches.L1Cache_Controller.NP.Ifetch::total        15404                       (Unspecified)
system.caches.L1Cache_Controller.NP.Store |         921     15.53%     15.53% |         628     10.59%     26.13% |         648     10.93%     37.06% |         639     10.78%     47.83% |         652     11.00%     58.83% |        1185     19.99%     78.82% |         626     10.56%     89.37% |         630     10.63%    100.00% (Unspecified)
system.caches.L1Cache_Controller.NP.Store::total         5929                       (Unspecified)
system.caches.L1Cache_Controller.NP.Inv  |       22474     14.78%     14.78% |       18505     12.17%     26.95% |       18497     12.17%     39.12% |       18580     12.22%     51.34% |       18397     12.10%     63.44% |       18965     12.47%     75.92% |       18261     12.01%     87.93% |       18353     12.07%    100.00% (Unspecified)
system.caches.L1Cache_Controller.NP.Inv::total       152032                       (Unspecified)
system.caches.L1Cache_Controller.I.Load  |        1594      9.93%      9.93% |        2097     13.06%     22.99% |        2058     12.82%     35.81% |        2096     13.06%     48.87% |        2073     12.91%     61.78% |        2018     12.57%     74.35% |        2070     12.89%     87.24% |        2048     12.76%    100.00% (Unspecified)
system.caches.L1Cache_Controller.I.Load::total        16054                       (Unspecified)
system.caches.L1Cache_Controller.I.Ifetch |        2146     14.15%     14.15% |        1865     12.29%     26.44% |        1871     12.33%     38.77% |        1874     12.35%     51.12% |        1862     12.27%     63.40% |        1821     12.00%     75.40% |        1869     12.32%     87.72% |        1863     12.28%    100.00% (Unspecified)
system.caches.L1Cache_Controller.I.Ifetch::total        15171                       (Unspecified)
system.caches.L1Cache_Controller.I.Store |         182     13.42%     13.42% |         176     12.98%     26.40% |         163     12.02%     38.42% |         167     12.32%     50.74% |         169     12.46%     63.20% |         165     12.17%     75.37% |         167     12.32%     87.68% |         167     12.32%    100.00% (Unspecified)
system.caches.L1Cache_Controller.I.Store::total         1356                       (Unspecified)
system.caches.L1Cache_Controller.I.L1_Replacement |        3721      9.42%      9.42% |        5029     12.74%     22.16% |        4971     12.59%     34.75% |        4837     12.25%     47.00% |        5011     12.69%     59.68% |        5534     14.01%     73.70% |        5174     13.10%     86.80% |        5212     13.20%    100.00% (Unspecified)
system.caches.L1Cache_Controller.I.L1_Replacement::total        39489                       (Unspecified)
system.caches.L1Cache_Controller.S.Load  |     5640376     12.09%     12.09% |     6123067     13.13%     25.22% |     5966490     12.79%     38.00% |     5975739     12.81%     50.81% |     5908213     12.66%     63.48% |     5501468     11.79%     75.27% |     5708839     12.24%     87.51% |     5827391     12.49%    100.00% (Unspecified)
system.caches.L1Cache_Controller.S.Load::total     46651583                       (Unspecified)
system.caches.L1Cache_Controller.S.Ifetch |    10364791     12.58%     12.58% |    10311593     12.51%     25.09% |    10306438     12.51%     37.59% |    10292617     12.49%     50.08% |    10296918     12.49%     62.57% |    10337993     12.54%     75.12% |    10261298     12.45%     87.57% |    10245345     12.43%    100.00% (Unspecified)
system.caches.L1Cache_Controller.S.Ifetch::total     82416993                       (Unspecified)
system.caches.L1Cache_Controller.S.Store |        2242     17.12%     17.12% |        1846     14.10%     31.22% |        1739     13.28%     44.50% |        1568     11.97%     56.47% |        1522     11.62%     68.09% |        1283      9.80%     77.89% |        1470     11.23%     89.12% |        1425     10.88%    100.00% (Unspecified)
system.caches.L1Cache_Controller.S.Store::total        13095                       (Unspecified)
system.caches.L1Cache_Controller.S.Inv   |        5461     11.47%     11.47% |        5859     12.31%     23.79% |        5832     12.25%     36.04% |        6018     12.64%     48.68% |        6081     12.78%     61.46% |        6272     13.18%     74.64% |        6044     12.70%     87.34% |        6025     12.66%    100.00% (Unspecified)
system.caches.L1Cache_Controller.S.Inv::total        47592                       (Unspecified)
system.caches.L1Cache_Controller.S.L1_Replacement |       33152     12.48%     12.48% |       33898     12.76%     25.24% |       33587     12.64%     37.89% |       33245     12.52%     50.40% |       33186     12.49%     62.89% |       33645     12.67%     75.56% |       32477     12.23%     87.79% |       32445     12.21%    100.00% (Unspecified)
system.caches.L1Cache_Controller.S.L1_Replacement::total       265635                       (Unspecified)
system.caches.L1Cache_Controller.E.Load  |     1932872     12.44%     12.44% |     1935974     12.46%     24.90% |     1950224     12.55%     37.46% |     1968397     12.67%     50.13% |     1795006     11.55%     61.68% |     1970149     12.68%     74.37% |     2163672     13.93%     88.29% |     1818619     11.71%    100.00% (Unspecified)
system.caches.L1Cache_Controller.E.Load::total     15534913                       (Unspecified)
system.caches.L1Cache_Controller.E.Store |       31266     12.34%     12.34% |       31425     12.41%     24.75% |       31503     12.44%     37.19% |       31698     12.51%     49.70% |       31745     12.53%     62.23% |       32037     12.65%     74.88% |       31784     12.55%     87.43% |       31847     12.57%    100.00% (Unspecified)
system.caches.L1Cache_Controller.E.Store::total       253305                       (Unspecified)
system.caches.L1Cache_Controller.E.Inv   |        1399      6.50%      6.50% |        2938     13.65%     20.15% |        2847     13.22%     33.37% |        2590     12.03%     45.40% |        2796     12.99%     58.39% |        3061     14.22%     72.61% |        2912     13.53%     86.13% |        2985     13.87%    100.00% (Unspecified)
system.caches.L1Cache_Controller.E.Inv::total        21528                       (Unspecified)
system.caches.L1Cache_Controller.E.L1_Replacement |      196492     12.64%     12.64% |      195147     12.56%     25.20% |      195138     12.56%     37.75% |      194769     12.53%     50.29% |      193260     12.43%     62.72% |      193195     12.43%     75.15% |      193114     12.43%     87.58% |      193064     12.42%    100.00% (Unspecified)
system.caches.L1Cache_Controller.E.L1_Replacement::total      1554179                       (Unspecified)
system.caches.L1Cache_Controller.E.Fwd_GETX |           5      9.26%      9.26% |           8     14.81%     24.07% |           8     14.81%     38.89% |           8     14.81%     53.70% |           8     14.81%     68.52% |           1      1.85%     70.37% |           8     14.81%     85.19% |           8     14.81%    100.00% (Unspecified)
system.caches.L1Cache_Controller.E.Fwd_GETX::total           54                       (Unspecified)
system.caches.L1Cache_Controller.E.Fwd_GETS |        4388     12.26%     12.26% |        4489     12.54%     24.80% |        4514     12.61%     37.42% |        4564     12.75%     50.17% |        4425     12.36%     62.53% |        4574     12.78%     75.32% |        4427     12.37%     87.69% |        4407     12.31%    100.00% (Unspecified)
system.caches.L1Cache_Controller.E.Fwd_GETS::total        35788                       (Unspecified)
system.caches.L1Cache_Controller.M.Load  |     2908589     12.75%     12.75% |     2799459     12.27%     25.03% |     2794901     12.25%     37.28% |     2770127     12.14%     49.42% |     2956027     12.96%     62.38% |     2941984     12.90%     75.28% |     2733997     11.99%     87.27% |     2903719     12.73%    100.00% (Unspecified)
system.caches.L1Cache_Controller.M.Load::total     22808803                       (Unspecified)
system.caches.L1Cache_Controller.M.Store |      286286     12.38%     12.38% |      280929     12.14%     24.52% |      280202     12.11%     36.63% |      279962     12.10%     48.74% |      299469     12.95%     61.68% |      326711     14.12%     75.81% |      280089     12.11%     87.92% |      279534     12.08%    100.00% (Unspecified)
system.caches.L1Cache_Controller.M.Store::total      2313182                       (Unspecified)
system.caches.L1Cache_Controller.M.Inv   |         899     22.18%     22.18% |         501     12.36%     34.54% |         500     12.34%     46.88% |         486     11.99%     58.87% |         395      9.75%     68.62% |         424     10.46%     79.08% |         446     11.00%     90.08% |         402      9.92%    100.00% (Unspecified)
system.caches.L1Cache_Controller.M.Inv::total         4053                       (Unspecified)
system.caches.L1Cache_Controller.M.L1_Replacement |       39570     14.76%     14.76% |       32183     12.00%     26.76% |       32306     12.05%     38.81% |       32520     12.13%     50.93% |       32691     12.19%     63.13% |       33393     12.45%     75.58% |       32673     12.18%     87.76% |       32810     12.24%    100.00% (Unspecified)
system.caches.L1Cache_Controller.M.L1_Replacement::total       268146                       (Unspecified)
system.caches.L1Cache_Controller.M.Fwd_GETX |         120     11.70%     11.70% |         131     12.77%     24.46% |         136     13.26%     37.72% |         130     12.67%     50.39% |         133     12.96%     63.35% |         119     11.60%     74.95% |         130     12.67%     87.62% |         127     12.38%    100.00% (Unspecified)
system.caches.L1Cache_Controller.M.Fwd_GETX::total         1026                       (Unspecified)
system.caches.L1Cache_Controller.M.Fwd_GETS |        1803     22.40%     22.40% |        1237     15.37%     37.76% |        1085     13.48%     51.24% |         908     11.28%     62.52% |         845     10.50%     73.02% |         707      8.78%     81.80% |         767      9.53%     91.33% |         698      8.67%    100.00% (Unspecified)
system.caches.L1Cache_Controller.M.Fwd_GETS::total         8050                       (Unspecified)
system.caches.L1Cache_Controller.IS.Inv  |           0      0.00%      0.00% |           1     12.50%     12.50% |           2     25.00%     37.50% |           1     12.50%     50.00% |           1     12.50%     62.50% |           0      0.00%     62.50% |           2     25.00%     87.50% |           1     12.50%    100.00% (Unspecified)
system.caches.L1Cache_Controller.IS.Inv::total            8                       (Unspecified)
system.caches.L1Cache_Controller.IS.L1_Replacement |           0      0.00%      0.00% |           0      0.00%      0.00% |           0      0.00%      0.00% |           0      0.00%      0.00% |           1     25.00%     25.00% |           1     25.00%     50.00% |           2     50.00%    100.00% |           0      0.00%    100.00% (Unspecified)
system.caches.L1Cache_Controller.IS.L1_Replacement::total            4                       (Unspecified)
system.caches.L1Cache_Controller.IS.Data_Exclusive |      241226     12.77%     12.77% |      236445     12.51%     25.28% |      236395     12.51%     37.79% |      236092     12.50%     50.29% |      234647     12.42%     62.71% |      235278     12.45%     75.16% |      234674     12.42%     87.58% |      234716     12.42%    100.00% (Unspecified)
system.caches.L1Cache_Controller.IS.Data_Exclusive::total      1889473                       (Unspecified)
system.caches.L1Cache_Controller.IS.DataS_fromL1 |        5366     12.24%     12.24% |        5646     12.88%     25.12% |        5592     12.76%     37.87% |        5475     12.49%     50.36% |        5418     12.36%     62.72% |        5472     12.48%     75.20% |        5416     12.35%     87.56% |        5455     12.44%    100.00% (Unspecified)
system.caches.L1Cache_Controller.IS.DataS_fromL1::total        43840                       (Unspecified)
system.caches.L1Cache_Controller.IS.Data_all_Acks |       29512     13.23%     13.23% |       27969     12.53%     25.76% |       27762     12.44%     38.20% |       27591     12.37%     50.57% |       27850     12.48%     63.05% |       28217     12.65%     75.69% |       27133     12.16%     87.85% |       27100     12.15%    100.00% (Unspecified)
system.caches.L1Cache_Controller.IS.Data_all_Acks::total       223134                       (Unspecified)
system.caches.L1Cache_Controller.IM.Data |          57     91.94%     91.94% |           0      0.00%     91.94% |           1      1.61%     93.55% |           1      1.61%     95.16% |           0      0.00%     95.16% |           2      3.23%     98.39% |           0      0.00%     98.39% |           1      1.61%    100.00% (Unspecified)
system.caches.L1Cache_Controller.IM.Data::total           62                       (Unspecified)
system.caches.L1Cache_Controller.IM.Data_all_Acks |        1047     14.49%     14.49% |         804     11.12%     25.61% |         811     11.22%     36.83% |         805     11.14%     47.97% |         822     11.37%     59.35% |        1348     18.65%     78.00% |         794     10.99%     88.99% |         796     11.01%    100.00% (Unspecified)
system.caches.L1Cache_Controller.IM.Data_all_Acks::total         7227                       (Unspecified)
system.caches.L1Cache_Controller.SM.Inv  |           1     25.00%     25.00% |           0      0.00%     25.00% |           1     25.00%     50.00% |           0      0.00%     50.00% |           1     25.00%     75.00% |           0      0.00%     75.00% |           1     25.00%    100.00% |           0      0.00%    100.00% (Unspecified)
system.caches.L1Cache_Controller.SM.Inv::total            4                       (Unspecified)
system.caches.L1Cache_Controller.SM.Ack  |       10087     21.37%     21.37% |        7016     14.86%     36.23% |        5943     12.59%     48.82% |        5294     11.21%     60.03% |        5235     11.09%     71.12% |        4236      8.97%     80.09% |        4698      9.95%     90.05% |        4699      9.95%    100.00% (Unspecified)
system.caches.L1Cache_Controller.SM.Ack::total        47208                       (Unspecified)
system.caches.L1Cache_Controller.SM.Ack_all |        2298     17.47%     17.47% |        1846     14.03%     31.51% |        1739     13.22%     44.73% |        1569     11.93%     56.66% |        1521     11.56%     68.22% |        1285      9.77%     77.99% |        1469     11.17%     89.16% |        1426     10.84%    100.00% (Unspecified)
system.caches.L1Cache_Controller.SM.Ack_all::total        13153                       (Unspecified)
system.caches.L1Cache_Controller.IS_I.Data_all_Acks |           0      0.00%      0.00% |           1     12.50%     12.50% |           2     25.00%     37.50% |           1     12.50%     50.00% |           1     12.50%     62.50% |           0      0.00%     62.50% |           2     25.00%     87.50% |           1     12.50%    100.00% (Unspecified)
system.caches.L1Cache_Controller.IS_I.Data_all_Acks::total            8                       (Unspecified)
system.caches.L1Cache_Controller.M_I.Ifetch |           0      0.00%      0.00% |           0      0.00%      0.00% |           0      0.00%      0.00% |           0      0.00%      0.00% |           0      0.00%      0.00% |           1    100.00%    100.00% |           0      0.00%    100.00% |           0      0.00%    100.00% (Unspecified)
system.caches.L1Cache_Controller.M_I.Ifetch::total            1                       (Unspecified)
system.caches.L1Cache_Controller.M_I.Inv |           0      0.00%      0.00% |           0      0.00%      0.00% |           0      0.00%      0.00% |           1     25.00%     25.00% |           0      0.00%     25.00% |           1     25.00%     50.00% |           1     25.00%     75.00% |           1     25.00%    100.00% (Unspecified)
system.caches.L1Cache_Controller.M_I.Inv::total            4                       (Unspecified)
system.caches.L1Cache_Controller.M_I.Fwd_GETS |           1     50.00%     50.00% |           0      0.00%     50.00% |           0      0.00%     50.00% |           0      0.00%     50.00% |           0      0.00%     50.00% |           0      0.00%     50.00% |           1     50.00%    100.00% |           0      0.00%    100.00% (Unspecified)
system.caches.L1Cache_Controller.M_I.Fwd_GETS::total            2                       (Unspecified)
system.caches.L1Cache_Controller.M_I.WB_Ack |      236061     12.95%     12.95% |      227330     12.47%     25.43% |      227444     12.48%     37.91% |      227288     12.47%     50.38% |      225951     12.40%     62.78% |      226587     12.43%     75.22% |      225785     12.39%     87.61% |      225873     12.39%    100.00% (Unspecified)
system.caches.L1Cache_Controller.M_I.WB_Ack::total      1822319                       (Unspecified)
system.caches.L1Cache_Controller.SINK_WB_ACK.WB_Ack |           1     16.67%     16.67% |           0      0.00%     16.67% |           0      0.00%     16.67% |           1     16.67%     33.33% |           0      0.00%     33.33% |           1     16.67%     50.00% |           2     33.33%     83.33% |           1     16.67%    100.00% (Unspecified)
system.caches.L1Cache_Controller.SINK_WB_ACK.WB_Ack::total            6                       (Unspecified)
system.caches.Directory_Controller.Fetch |        3889      0.21%      0.21% |     1829404     99.79%    100.00% (Unspecified)
system.caches.Directory_Controller.Fetch::total      1833293                       (Unspecified)
system.caches.Directory_Controller.Data  |          83      0.02%      0.02% |      337745     99.98%    100.00% (Unspecified)
system.caches.Directory_Controller.Data::total       337828                       (Unspecified)
system.caches.Directory_Controller.Memory_Data |        3889      0.21%      0.21% |     1829404     99.79%    100.00% (Unspecified)
system.caches.Directory_Controller.Memory_Data::total      1833293                       (Unspecified)
system.caches.Directory_Controller.Memory_Ack |          83      0.02%      0.02% |      337745     99.98%    100.00% (Unspecified)
system.caches.Directory_Controller.Memory_Ack::total       337828                       (Unspecified)
system.caches.Directory_Controller.CleanReplacement |        3712      0.25%      0.25% |     1491753     99.75%    100.00% (Unspecified)
system.caches.Directory_Controller.CleanReplacement::total      1495465                       (Unspecified)
system.caches.Directory_Controller.I.Fetch |        3889      0.21%      0.21% |     1829404     99.79%    100.00% (Unspecified)
system.caches.Directory_Controller.I.Fetch::total      1833293                       (Unspecified)
system.caches.Directory_Controller.M.Data |          83      0.02%      0.02% |      337745     99.98%    100.00% (Unspecified)
system.caches.Directory_Controller.M.Data::total       337828                       (Unspecified)
system.caches.Directory_Controller.M.CleanReplacement |        3712      0.25%      0.25% |     1491753     99.75%    100.00% (Unspecified)
system.caches.Directory_Controller.M.CleanReplacement::total      1495465                       (Unspecified)
system.caches.Directory_Controller.IM.Memory_Data |        3889      0.21%      0.21% |     1829404     99.79%    100.00% (Unspecified)
system.caches.Directory_Controller.IM.Memory_Data::total      1833293                       (Unspecified)
system.caches.Directory_Controller.MI.Memory_Ack |          83      0.02%      0.02% |      337745     99.98%    100.00% (Unspecified)
system.caches.Directory_Controller.MI.Memory_Ack::total       337828                       (Unspecified)
system.caches.L2Cache_Controller.L1_GET_INSTR |        4280     13.98%     13.98% |        4413     14.41%     28.39% |        3396     11.09%     39.48% |        2882      9.41%     48.89% |        3662     11.96%     60.85% |        4041     13.20%     74.05% |        4009     13.09%     87.15% |        3936     12.85%    100.00% (Unspecified)
system.caches.L2Cache_Controller.L1_GET_INSTR::total        30619                       (Unspecified)
system.caches.L2Cache_Controller.L1_GETS |      268206     12.61%     12.61% |      265620     12.49%     25.10% |      266184     12.52%     37.62% |      264219     12.43%     50.05% |      264634     12.44%     62.49% |      264511     12.44%     74.93% |      264848     12.45%     87.39% |      268229     12.61%    100.00% (Unspecified)
system.caches.L2Cache_Controller.L1_GETS::total      2126451                       (Unspecified)
system.caches.L2Cache_Controller.L1_GETX |        1070     14.31%     14.31% |        1769     23.66%     37.97% |         236      3.16%     41.13% |         587      7.85%     48.98% |         737      9.86%     58.84% |        1246     16.67%     75.51% |         745      9.97%     85.47% |        1086     14.53%    100.00% (Unspecified)
system.caches.L2Cache_Controller.L1_GETX::total         7476                       (Unspecified)
system.caches.L2Cache_Controller.L1_UPGRADE |        1598     12.19%     12.19% |        1596     12.17%     24.36% |        1564     11.93%     36.28% |        1571     11.98%     48.26% |        1652     12.60%     60.86% |        1556     11.87%     72.72% |        1728     13.18%     85.90% |        1849     14.10%    100.00% (Unspecified)
system.caches.L2Cache_Controller.L1_UPGRADE::total        13114                       (Unspecified)
system.caches.L2Cache_Controller.L1_PUTX |      228366     12.53%     12.53% |      228024     12.51%     25.04% |      227393     12.48%     37.52% |      227460     12.48%     50.00% |      227624     12.49%     62.50% |      227701     12.50%     74.99% |      227749     12.50%     87.49% |      228006     12.51%    100.00% (Unspecified)
system.caches.L2Cache_Controller.L1_PUTX::total      1822323                       (Unspecified)
system.caches.L2Cache_Controller.L1_PUTX_old |           0      0.00%      0.00% |           0      0.00%      0.00% |           2     25.00%     25.00% |           0      0.00%     25.00% |           6     75.00%    100.00% |           0      0.00%    100.00% |           0      0.00%    100.00% |           0      0.00%    100.00% (Unspecified)
system.caches.L2Cache_Controller.L1_PUTX_old::total            8                       (Unspecified)
system.caches.L2Cache_Controller.L2_Replacement |       41939     12.54%     12.54% |       41716     12.47%     25.01% |       41741     12.48%     37.49% |       41708     12.47%     49.96% |       41745     12.48%     62.45% |       41902     12.53%     74.97% |       41842     12.51%     87.48% |       41859     12.52%    100.00% (Unspecified)
system.caches.L2Cache_Controller.L2_Replacement::total       334452                       (Unspecified)
system.caches.L2Cache_Controller.L2_Replacement_clean |      187760     12.53%     12.53% |      187446     12.51%     25.03% |      187341     12.50%     37.53% |      187186     12.49%     50.02% |      187371     12.50%     62.52% |      187035     12.48%     75.00% |      187094     12.48%     87.48% |      187608     12.52%    100.00% (Unspecified)
system.caches.L2Cache_Controller.L2_Replacement_clean::total      1498841                       (Unspecified)
system.caches.L2Cache_Controller.Mem_Data |      229699     12.53%     12.53% |      229162     12.50%     25.03% |      229082     12.50%     37.52% |      228894     12.49%     50.01% |      229116     12.50%     62.51% |      228937     12.49%     75.00% |      228936     12.49%     87.48% |      229467     12.52%    100.00% (Unspecified)
system.caches.L2Cache_Controller.Mem_Data::total      1833293                       (Unspecified)
system.caches.L2Cache_Controller.Mem_Ack |      229699     12.53%     12.53% |      229162     12.50%     25.03% |      229082     12.50%     37.52% |      228894     12.49%     50.01% |      229116     12.50%     62.51% |      228937     12.49%     75.00% |      228936     12.49%     87.48% |      229467     12.52%    100.00% (Unspecified)
system.caches.L2Cache_Controller.Mem_Ack::total      1833293                       (Unspecified)
system.caches.L2Cache_Controller.WB_Data |        1640     13.55%     13.55% |        1482     12.24%     25.80% |        1261     10.42%     36.21% |        1450     11.98%     48.19% |        1425     11.77%     59.97% |        1509     12.47%     72.44% |        1541     12.73%     85.17% |        1795     14.83%    100.00% (Unspecified)
system.caches.L2Cache_Controller.WB_Data::total        12103                       (Unspecified)
system.caches.L2Cache_Controller.WB_Data_clean |        4610     12.88%     12.88% |        4365     12.19%     25.07% |        4281     11.96%     37.03% |        4282     11.96%     49.00% |        4560     12.74%     61.74% |        4381     12.24%     73.98% |        4351     12.16%     86.13% |        4964     13.87%    100.00% (Unspecified)
system.caches.L2Cache_Controller.WB_Data_clean::total        35794                       (Unspecified)
system.caches.L2Cache_Controller.Ack     |       14357     13.16%     13.16% |       13650     12.51%     25.67% |       13198     12.10%     37.77% |       13024     11.94%     49.71% |       13529     12.40%     62.12% |       13673     12.53%     74.65% |       13254     12.15%     86.80% |       14399     13.20%    100.00% (Unspecified)
system.caches.L2Cache_Controller.Ack::total       109084                       (Unspecified)
system.caches.L2Cache_Controller.Ack_all |        8492     13.10%     13.10% |        8191     12.64%     25.74% |        7802     12.04%     37.78% |        7901     12.19%     49.97% |        8159     12.59%     62.56% |        7967     12.29%     74.85% |        7775     12.00%     86.85% |        8523     13.15%    100.00% (Unspecified)
system.caches.L2Cache_Controller.Ack_all::total        64810                       (Unspecified)
system.caches.L2Cache_Controller.Unblock |        5625     12.83%     12.83% |        5342     12.19%     25.02% |        5168     11.79%     36.80% |        5241     11.95%     48.76% |        5574     12.71%     61.47% |        5335     12.17%     73.64% |        5381     12.27%     85.92% |        6174     14.08%    100.00% (Unspecified)
system.caches.L2Cache_Controller.Unblock::total        43840                       (Unspecified)
system.caches.L2Cache_Controller.Exclusive_Unblock |      239539     12.54%     12.54% |      239715     12.55%     25.09% |      237735     12.45%     37.54% |      237994     12.46%     50.00% |      238371     12.48%     62.48% |      238453     12.49%     74.97% |      238463     12.49%     87.46% |      239583     12.54%    100.00% (Unspecified)
system.caches.L2Cache_Controller.Exclusive_Unblock::total      1909853                       (Unspecified)
system.caches.L2Cache_Controller.NP.L1_GET_INSTR |         579     13.45%     13.45% |         564     13.10%     26.55% |         528     12.26%     38.82% |         479     11.13%     49.94% |         564     13.10%     63.04% |         541     12.57%     75.61% |         500     11.61%     87.22% |         550     12.78%    100.00% (Unspecified)
system.caches.L2Cache_Controller.NP.L1_GET_INSTR::total         4305                       (Unspecified)
system.caches.L2Cache_Controller.NP.L1_GETS |      228724     12.52%     12.52% |      228291     12.50%     25.02% |      228396     12.50%     37.53% |      228174     12.49%     50.02% |      228276     12.50%     62.52% |      228002     12.48%     75.00% |      228122     12.49%     87.49% |      228522     12.51%    100.00% (Unspecified)
system.caches.L2Cache_Controller.NP.L1_GETS::total      1826507                       (Unspecified)
system.caches.L2Cache_Controller.NP.L1_GETX |         396     15.96%     15.96% |         307     12.37%     28.34% |         158      6.37%     34.70% |         241      9.71%     44.42% |         276     11.12%     55.54% |         394     15.88%     71.42% |         314     12.66%     84.08% |         395     15.92%    100.00% (Unspecified)
system.caches.L2Cache_Controller.NP.L1_GETX::total         2481                       (Unspecified)
system.caches.L2Cache_Controller.NP.L1_PUTX_old |           0      0.00%      0.00% |           0      0.00%      0.00% |           1     25.00%     25.00% |           0      0.00%     25.00% |           3     75.00%    100.00% |           0      0.00%    100.00% |           0      0.00%    100.00% |           0      0.00%    100.00% (Unspecified)
system.caches.L2Cache_Controller.NP.L1_PUTX_old::total            4                       (Unspecified)
system.caches.L2Cache_Controller.SS.L1_GET_INSTR |        3306     14.39%     14.39% |        3470     15.11%     29.50% |        2494     10.86%     40.36% |        2021      8.80%     49.15% |        2551     11.11%     60.26% |        3060     13.32%     73.58% |        3069     13.36%     86.94% |        3000     13.06%    100.00% (Unspecified)
system.caches.L2Cache_Controller.SS.L1_GET_INSTR::total        22971                       (Unspecified)
system.caches.L2Cache_Controller.SS.L1_GETS |       25238     13.17%     13.17% |       23612     12.32%     25.48% |       24983     13.03%     38.52% |       23076     12.04%     50.55% |       22929     11.96%     62.52% |       23446     12.23%     74.75% |       23342     12.18%     86.92% |       25065     13.08%    100.00% (Unspecified)
system.caches.L2Cache_Controller.SS.L1_GETS::total       191691                       (Unspecified)
system.caches.L2Cache_Controller.SS.L1_GETX |          36     58.06%     58.06% |           0      0.00%     58.06% |           0      0.00%     58.06% |           0      0.00%     58.06% |           0      0.00%     58.06% |           0      0.00%     58.06% |          21     33.87%     91.94% |           5      8.06%    100.00% (Unspecified)
system.caches.L2Cache_Controller.SS.L1_GETX::total           62                       (Unspecified)
system.caches.L2Cache_Controller.SS.L1_UPGRADE |        1594     12.18%     12.18% |        1595     12.18%     24.36% |        1564     11.95%     36.31% |        1571     12.00%     48.31% |        1651     12.61%     60.92% |        1555     11.88%     72.80% |        1712     13.08%     85.88% |        1849     14.12%    100.00% (Unspecified)
system.caches.L2Cache_Controller.SS.L1_UPGRADE::total        13091                       (Unspecified)
system.caches.L2Cache_Controller.SS.L1_PUTX |           2    100.00%    100.00% |           0      0.00%    100.00% |           0      0.00%    100.00% |           0      0.00%    100.00% |           0      0.00%    100.00% |           0      0.00%    100.00% |           0      0.00%    100.00% |           0      0.00%    100.00% (Unspecified)
system.caches.L2Cache_Controller.SS.L1_PUTX::total            2                       (Unspecified)
system.caches.L2Cache_Controller.SS.L2_Replacement |        1028     12.04%     12.04% |        1063     12.45%     24.50% |        1048     12.28%     36.78% |        1078     12.63%     49.41% |        1114     13.05%     62.46% |        1083     12.69%     75.15% |        1052     12.33%     87.48% |        1069     12.52%    100.00% (Unspecified)
system.caches.L2Cache_Controller.SS.L2_Replacement::total         8535                       (Unspecified)
system.caches.L2Cache_Controller.SS.L2_Replacement_clean |        4612     13.27%     13.27% |        4270     12.29%     25.56% |        4160     11.97%     37.53% |        4108     11.82%     49.36% |        4427     12.74%     62.10% |        4294     12.36%     74.46% |        4169     12.00%     86.45% |        4707     13.55%    100.00% (Unspecified)
system.caches.L2Cache_Controller.SS.L2_Replacement_clean::total        34747                       (Unspecified)
system.caches.L2Cache_Controller.M.L1_GET_INSTR |           0      0.00%      0.00% |           2     22.22%     22.22% |           1     11.11%     33.33% |           0      0.00%     33.33% |           0      0.00%     33.33% |           1     11.11%     44.44% |           3     33.33%     77.78% |           2     22.22%    100.00% (Unspecified)
system.caches.L2Cache_Controller.M.L1_GET_INSTR::total            9                       (Unspecified)
system.caches.L2Cache_Controller.M.L1_GETS |        8235     13.03%     13.03% |        8207     12.99%     26.02% |        7560     11.97%     37.99% |        7678     12.15%     50.14% |        7726     12.23%     62.37% |        7670     12.14%     74.51% |        7900     12.50%     87.01% |        8208     12.99%    100.00% (Unspecified)
system.caches.L2Cache_Controller.M.L1_GETS::total        63184                       (Unspecified)
system.caches.L2Cache_Controller.M.L1_GETX |         592     16.15%     16.15% |         456     12.44%     28.59% |          73      1.99%     30.58% |         319      8.70%     39.28% |         439     11.97%     51.25% |         792     21.60%     72.86% |         403     10.99%     83.85% |         592     16.15%    100.00% (Unspecified)
system.caches.L2Cache_Controller.M.L1_GETX::total         3666                       (Unspecified)
system.caches.L2Cache_Controller.M.L2_Replacement |       40755     12.54%     12.54% |       40549     12.48%     25.02% |       40651     12.51%     37.53% |       40519     12.47%     49.99% |       40540     12.47%     62.47% |       40656     12.51%     74.98% |       40663     12.51%     87.49% |       40661     12.51%    100.00% (Unspecified)
system.caches.L2Cache_Controller.M.L2_Replacement::total       324994                       (Unspecified)
system.caches.L2Cache_Controller.M.L2_Replacement_clean |      179827     12.49%     12.49% |      179917     12.50%     24.99% |      180255     12.52%     37.51% |      179983     12.50%     50.02% |      180006     12.51%     62.52% |      179759     12.49%     75.01% |      179987     12.50%     87.52% |      179698     12.48%    100.00% (Unspecified)
system.caches.L2Cache_Controller.M.L2_Replacement_clean::total      1439432                       (Unspecified)
system.caches.L2Cache_Controller.MT.L1_GETS |        5625     12.83%     12.83% |        5342     12.19%     25.02% |        5168     11.79%     36.80% |        5241     11.95%     48.76% |        5574     12.71%     61.47% |        5335     12.17%     73.64% |        5381     12.27%     85.92% |        6174     14.08%    100.00% (Unspecified)
system.caches.L2Cache_Controller.MT.L1_GETS::total        43840                       (Unspecified)
system.caches.L2Cache_Controller.MT.L1_GETX |          23      2.13%      2.13% |         893     82.69%     84.81% |           5      0.46%     85.28% |          27      2.50%     87.78% |          22      2.04%     89.81% |          60      5.56%     95.37% |           7      0.65%     96.02% |          43      3.98%    100.00% (Unspecified)
system.caches.L2Cache_Controller.MT.L1_GETX::total         1080                       (Unspecified)
system.caches.L2Cache_Controller.MT.L1_PUTX |      228362     12.53%     12.53% |      228024     12.51%     25.04% |      227393     12.48%     37.52% |      227460     12.48%     50.00% |      227624     12.49%     62.50% |      227701     12.50%     74.99% |      227749     12.50%     87.49% |      228006     12.51%    100.00% (Unspecified)
system.caches.L2Cache_Controller.MT.L1_PUTX::total      1822319                       (Unspecified)
system.caches.L2Cache_Controller.MT.L2_Replacement |         156     16.90%     16.90% |         104     11.27%     28.17% |          42      4.55%     32.72% |         111     12.03%     44.75% |          91      9.86%     54.60% |         163     17.66%     72.26% |         127     13.76%     86.02% |         129     13.98%    100.00% (Unspecified)
system.caches.L2Cache_Controller.MT.L2_Replacement::total          923                       (Unspecified)
system.caches.L2Cache_Controller.MT.L2_Replacement_clean |        3321     13.47%     13.47% |        3259     13.21%     26.68% |        2926     11.86%     38.55% |        3095     12.55%     51.09% |        2938     11.91%     63.01% |        2982     12.09%     75.10% |        2938     11.91%     87.01% |        3203     12.99%    100.00% (Unspecified)
system.caches.L2Cache_Controller.MT.L2_Replacement_clean::total        24662                       (Unspecified)
system.caches.L2Cache_Controller.M_I.L1_GET_INSTR |           0      0.00%      0.00% |           0      0.00%      0.00% |           7     15.91%     15.91% |           2      4.55%     20.45% |          21     47.73%     68.18% |           0      0.00%     68.18% |           8     18.18%     86.36% |           6     13.64%    100.00% (Unspecified)
system.caches.L2Cache_Controller.M_I.L1_GET_INSTR::total           44                       (Unspecified)
system.caches.L2Cache_Controller.M_I.L1_GETS |          43     51.81%     51.81% |          14     16.87%     68.67% |           2      2.41%     71.08% |           2      2.41%     73.49% |           1      1.20%     74.70% |           2      2.41%     77.11% |           0      0.00%     77.11% |          19     22.89%    100.00% (Unspecified)
system.caches.L2Cache_Controller.M_I.L1_GETS::total           83                       (Unspecified)
system.caches.L2Cache_Controller.M_I.Mem_Ack |      229699     12.53%     12.53% |      229162     12.50%     25.03% |      229082     12.50%     37.52% |      228894     12.49%     50.01% |      229116     12.50%     62.51% |      228937     12.49%     75.00% |      228936     12.49%     87.48% |      229467     12.52%    100.00% (Unspecified)
system.caches.L2Cache_Controller.M_I.Mem_Ack::total      1833293                       (Unspecified)
system.caches.L2Cache_Controller.MT_I.WB_Data |         116     17.13%     17.13% |          66      9.75%     26.88% |          15      2.22%     29.10% |          83     12.26%     41.36% |          68     10.04%     51.40% |         141     20.83%     72.23% |          81     11.96%     84.19% |         107     15.81%    100.00% (Unspecified)
system.caches.L2Cache_Controller.MT_I.WB_Data::total          677                       (Unspecified)
system.caches.L2Cache_Controller.MT_I.Ack_all |          40     16.26%     16.26% |          38     15.45%     31.71% |          27     10.98%     42.68% |          28     11.38%     54.07% |          23      9.35%     63.41% |          22      8.94%     72.36% |          46     18.70%     91.06% |          22      8.94%    100.00% (Unspecified)
system.caches.L2Cache_Controller.MT_I.Ack_all::total          246                       (Unspecified)
system.caches.L2Cache_Controller.MCT_I.L1_PUTX_old |           0      0.00%      0.00% |           0      0.00%      0.00% |           1     25.00%     25.00% |           0      0.00%     25.00% |           3     75.00%    100.00% |           0      0.00%    100.00% |           0      0.00%    100.00% |           0      0.00%    100.00% (Unspecified)
system.caches.L2Cache_Controller.MCT_I.L1_PUTX_old::total            4                       (Unspecified)
system.caches.L2Cache_Controller.MCT_I.WB_Data |         509     15.08%     15.08% |         439     13.00%     28.08% |         358     10.60%     38.68% |         408     12.09%     50.77% |         340     10.07%     60.84% |         414     12.26%     73.10% |         430     12.74%     85.84% |         478     14.16%    100.00% (Unspecified)
system.caches.L2Cache_Controller.MCT_I.WB_Data::total         3376                       (Unspecified)
system.caches.L2Cache_Controller.MCT_I.WB_Data_clean |           0      0.00%      0.00% |           0      0.00%      0.00% |           1     25.00%     25.00% |           0      0.00%     25.00% |           3     75.00%    100.00% |           0      0.00%    100.00% |           0      0.00%    100.00% |           0      0.00%    100.00% (Unspecified)
system.caches.L2Cache_Controller.MCT_I.WB_Data_clean::total            4                       (Unspecified)
system.caches.L2Cache_Controller.MCT_I.Ack_all |        2812     13.21%     13.21% |        2820     13.25%     26.46% |        2567     12.06%     38.53% |        2687     12.63%     51.15% |        2595     12.19%     63.34% |        2568     12.07%     75.41% |        2508     11.78%     87.20% |        2725     12.80%    100.00% (Unspecified)
system.caches.L2Cache_Controller.MCT_I.Ack_all::total        21282                       (Unspecified)
system.caches.L2Cache_Controller.I_I.Ack |       11268     13.33%     13.33% |       10543     12.47%     25.80% |       10218     12.09%     37.88% |        9942     11.76%     49.64% |       10506     12.43%     62.07% |       10563     12.49%     74.56% |       10206     12.07%     86.63% |       11302     13.37%    100.00% (Unspecified)
system.caches.L2Cache_Controller.I_I.Ack::total        84548                       (Unspecified)
system.caches.L2Cache_Controller.I_I.Ack_all |        4612     13.27%     13.27% |        4270     12.29%     25.56% |        4160     11.97%     37.53% |        4108     11.82%     49.36% |        4427     12.74%     62.10% |        4294     12.36%     74.46% |        4169     12.00%     86.45% |        4707     13.55%    100.00% (Unspecified)
system.caches.L2Cache_Controller.I_I.Ack_all::total        34747                       (Unspecified)
system.caches.L2Cache_Controller.S_I.Ack |        3089     12.59%     12.59% |        3107     12.66%     25.25% |        2980     12.15%     37.40% |        3082     12.56%     49.96% |        3023     12.32%     62.28% |        3110     12.68%     74.96% |        3048     12.42%     87.38% |        3097     12.62%    100.00% (Unspecified)
system.caches.L2Cache_Controller.S_I.Ack::total        24536                       (Unspecified)
system.caches.L2Cache_Controller.S_I.Ack_all |        1028     12.04%     12.04% |        1063     12.45%     24.50% |        1048     12.28%     36.78% |        1078     12.63%     49.41% |        1114     13.05%     62.46% |        1083     12.69%     75.15% |        1052     12.33%     87.48% |        1069     12.52%    100.00% (Unspecified)
system.caches.L2Cache_Controller.S_I.Ack_all::total         8535                       (Unspecified)
system.caches.L2Cache_Controller.ISS.L1_GETS |          61     27.98%     27.98% |          34     15.60%     43.58% |          21      9.63%     53.21% |          16      7.34%     60.55% |          19      8.72%     69.27% |          20      9.17%     78.44% |          16      7.34%     85.78% |          31     14.22%    100.00% (Unspecified)
system.caches.L2Cache_Controller.ISS.L1_GETS::total          218                       (Unspecified)
system.caches.L2Cache_Controller.ISS.Mem_Data |      228663     12.52%     12.52% |      228257     12.50%     25.02% |      228375     12.50%     37.52% |      228158     12.49%     50.02% |      228257     12.50%     62.52% |      227982     12.48%     75.00% |      228106     12.49%     87.49% |      228491     12.51%    100.00% (Unspecified)
system.caches.L2Cache_Controller.ISS.Mem_Data::total      1826289                       (Unspecified)
system.caches.L2Cache_Controller.IS.L1_GET_INSTR |         395     12.01%     12.01% |         377     11.46%     23.47% |         366     11.12%     34.59% |         380     11.55%     46.14% |         526     15.99%     62.13% |         439     13.34%     75.47% |         429     13.04%     88.51% |         378     11.49%    100.00% (Unspecified)
system.caches.L2Cache_Controller.IS.L1_GET_INSTR::total         3290                       (Unspecified)
system.caches.L2Cache_Controller.IS.L1_GETS |         160     36.36%     36.36% |          87     19.77%     56.14% |          18      4.09%     60.23% |          22      5.00%     65.23% |          29      6.59%     71.82% |          22      5.00%     76.82% |          14      3.18%     80.00% |          88     20.00%    100.00% (Unspecified)
system.caches.L2Cache_Controller.IS.L1_GETS::total          440                       (Unspecified)
system.caches.L2Cache_Controller.IS.Mem_Data |         640     14.15%     14.15% |         598     13.22%     27.37% |         549     12.14%     39.51% |         495     10.94%     50.45% |         583     12.89%     63.34% |         561     12.40%     75.75% |         516     11.41%     87.15% |         581     12.85%    100.00% (Unspecified)
system.caches.L2Cache_Controller.IS.Mem_Data::total         4523                       (Unspecified)
system.caches.L2Cache_Controller.IM.L1_GETX |           4     17.39%     17.39% |          19     82.61%    100.00% |           0      0.00%    100.00% |           0      0.00%    100.00% |           0      0.00%    100.00% |           0      0.00%    100.00% |           0      0.00%    100.00% |           0      0.00%    100.00% (Unspecified)
system.caches.L2Cache_Controller.IM.L1_GETX::total           23                       (Unspecified)
system.caches.L2Cache_Controller.IM.Mem_Data |         396     15.96%     15.96% |         307     12.37%     28.34% |         158      6.37%     34.70% |         241      9.71%     44.42% |         276     11.12%     55.54% |         394     15.88%     71.42% |         314     12.66%     84.08% |         395     15.92%    100.00% (Unspecified)
system.caches.L2Cache_Controller.IM.Mem_Data::total         2481                       (Unspecified)
system.caches.L2Cache_Controller.SS_MB.L1_GETS |          40     29.20%     29.20% |           1      0.73%     29.93% |           0      0.00%     29.93% |           0      0.00%     29.93% |          28     20.44%     50.36% |           1      0.73%     51.09% |          38     27.74%     78.83% |          29     21.17%    100.00% (Unspecified)
system.caches.L2Cache_Controller.SS_MB.L1_GETS::total          137                       (Unspecified)
system.caches.L2Cache_Controller.SS_MB.L1_GETX |           0      0.00%      0.00% |           0      0.00%      0.00% |           0      0.00%      0.00% |           0      0.00%      0.00% |           0      0.00%      0.00% |           0      0.00%      0.00% |           0      0.00%      0.00% |           7    100.00%    100.00% (Unspecified)
system.caches.L2Cache_Controller.SS_MB.L1_GETX::total            7                       (Unspecified)
system.caches.L2Cache_Controller.SS_MB.L1_UPGRADE |           4    100.00%    100.00% |           0      0.00%    100.00% |           0      0.00%    100.00% |           0      0.00%    100.00% |           0      0.00%    100.00% |           0      0.00%    100.00% |           0      0.00%    100.00% |           0      0.00%    100.00% (Unspecified)
system.caches.L2Cache_Controller.SS_MB.L1_UPGRADE::total            4                       (Unspecified)
system.caches.L2Cache_Controller.SS_MB.Exclusive_Unblock |        1630     12.39%     12.39% |        1595     12.13%     24.52% |        1564     11.89%     36.41% |        1571     11.94%     48.35% |        1651     12.55%     60.91% |        1555     11.82%     72.73% |        1733     13.18%     85.90% |        1854     14.10%    100.00% (Unspecified)
system.caches.L2Cache_Controller.SS_MB.Exclusive_Unblock::total        13153                       (Unspecified)
system.caches.L2Cache_Controller.MT_MB.L1_GETS |          15     17.65%     17.65% |          15     17.65%     35.29% |          17     20.00%     55.29% |           5      5.88%     61.18% |           2      2.35%     63.53% |           1      1.18%     64.71% |           6      7.06%     71.76% |          24     28.24%    100.00% (Unspecified)
system.caches.L2Cache_Controller.MT_MB.L1_GETS::total           85                       (Unspecified)
system.caches.L2Cache_Controller.MT_MB.L1_GETX |          19     12.18%     12.18% |          94     60.26%     72.44% |           0      0.00%     72.44% |           0      0.00%     72.44% |           0      0.00%     72.44% |           0      0.00%     72.44% |           0      0.00%     72.44% |          43     27.56%    100.00% (Unspecified)
system.caches.L2Cache_Controller.MT_MB.L1_GETX::total          156                       (Unspecified)
system.caches.L2Cache_Controller.MT_MB.Exclusive_Unblock |      237909     12.54%     12.54% |      238120     12.55%     25.10% |      236171     12.45%     37.55% |      236423     12.46%     50.01% |      236720     12.48%     62.50% |      236898     12.49%     74.99% |      236730     12.48%     87.47% |      237729     12.53%    100.00% (Unspecified)
system.caches.L2Cache_Controller.MT_MB.Exclusive_Unblock::total      1896700                       (Unspecified)
system.caches.L2Cache_Controller.MT_IIB.L1_GETS |          59     23.51%     23.51% |          16      6.37%     29.88% |          18      7.17%     37.05% |           4      1.59%     38.65% |          49     19.52%     58.17% |          12      4.78%     62.95% |          26     10.36%     73.31% |          67     26.69%    100.00% (Unspecified)
system.caches.L2Cache_Controller.MT_IIB.L1_GETS::total          251                       (Unspecified)
system.caches.L2Cache_Controller.MT_IIB.L1_GETX |           0      0.00%      0.00% |           0      0.00%      0.00% |           0      0.00%      0.00% |           0      0.00%      0.00% |           0      0.00%      0.00% |           0      0.00%      0.00% |           0      0.00%      0.00% |           1    100.00%    100.00% (Unspecified)
system.caches.L2Cache_Controller.MT_IIB.L1_GETX::total            1                       (Unspecified)
system.caches.L2Cache_Controller.MT_IIB.L1_PUTX |           2    100.00%    100.00% |           0      0.00%    100.00% |           0      0.00%    100.00% |           0      0.00%    100.00% |           0      0.00%    100.00% |           0      0.00%    100.00% |           0      0.00%    100.00% |           0      0.00%    100.00% (Unspecified)
system.caches.L2Cache_Controller.MT_IIB.L1_PUTX::total            2                       (Unspecified)
system.caches.L2Cache_Controller.MT_IIB.WB_Data |        1015     12.64%     12.64% |         977     12.17%     24.80% |         888     11.06%     35.86% |         951     11.84%     47.70% |        1009     12.56%     60.27% |         954     11.88%     72.15% |        1027     12.79%     84.93% |        1210     15.07%    100.00% (Unspecified)
system.caches.L2Cache_Controller.MT_IIB.WB_Data::total         8031                       (Unspecified)
system.caches.L2Cache_Controller.MT_IIB.WB_Data_clean |        4610     12.88%     12.88% |        4365     12.20%     25.08% |        4280     11.96%     37.04% |        4282     11.96%     49.00% |        4557     12.73%     61.73% |        4381     12.24%     73.97% |        4351     12.16%     86.13% |        4964     13.87%    100.00% (Unspecified)
system.caches.L2Cache_Controller.MT_IIB.WB_Data_clean::total        35790                       (Unspecified)
system.caches.L2Cache_Controller.MT_IIB.Unblock |           0      0.00%      0.00% |           0      0.00%      0.00% |           0      0.00%      0.00% |           8     42.11%     42.11% |           8     42.11%     84.21% |           0      0.00%     84.21% |           3     15.79%    100.00% |           0      0.00%    100.00% (Unspecified)
system.caches.L2Cache_Controller.MT_IIB.Unblock::total           19                       (Unspecified)
system.caches.L2Cache_Controller.MT_IB.WB_Data |           0      0.00%      0.00% |           0      0.00%      0.00% |           0      0.00%      0.00% |           8     42.11%     42.11% |           8     42.11%     84.21% |           0      0.00%     84.21% |           3     15.79%    100.00% |           0      0.00%    100.00% (Unspecified)
system.caches.L2Cache_Controller.MT_IB.WB_Data::total           19                       (Unspecified)
system.caches.L2Cache_Controller.MT_SB.L1_GETS |           6     40.00%     40.00% |           1      6.67%     46.67% |           1      6.67%     53.33% |           1      6.67%     60.00% |           1      6.67%     66.67% |           0      0.00%     66.67% |           3     20.00%     86.67% |           2     13.33%    100.00% (Unspecified)
system.caches.L2Cache_Controller.MT_SB.L1_GETS::total           15                       (Unspecified)
system.caches.L2Cache_Controller.MT_SB.L1_UPGRADE |           0      0.00%      0.00% |           1      5.26%      5.26% |           0      0.00%      5.26% |           0      0.00%      5.26% |           1      5.26%     10.53% |           1      5.26%     15.79% |          16     84.21%    100.00% |           0      0.00%    100.00% (Unspecified)
system.caches.L2Cache_Controller.MT_SB.L1_UPGRADE::total           19                       (Unspecified)
system.caches.L2Cache_Controller.MT_SB.Unblock |        5625     12.84%     12.84% |        5342     12.19%     25.03% |        5168     11.79%     36.82% |        5233     11.94%     48.76% |        5566     12.70%     61.46% |        5335     12.17%     73.64% |        5378     12.27%     85.91% |        6174     14.09%    100.00% (Unspecified)
system.caches.L2Cache_Controller.MT_SB.Unblock::total        43821                       (Unspecified)
system.caches.RequestType.LD.latency_hist_seqr::bucket_size         1024                       (Unspecified)
system.caches.RequestType.LD.latency_hist_seqr::max_bucket        10239                       (Unspecified)
system.caches.RequestType.LD.latency_hist_seqr::samples     87121179                       (Unspecified)
system.caches.RequestType.LD.latency_hist_seqr::mean    15.835390                       (Unspecified)
system.caches.RequestType.LD.latency_hist_seqr::gmean     1.156968                       (Unspecified)
system.caches.RequestType.LD.latency_hist_seqr::stdev   115.053630                       (Unspecified)
system.caches.RequestType.LD.latency_hist_seqr |    86865499     99.71%     99.71% |      232675      0.27%     99.97% |       21318      0.02%    100.00% |        1499      0.00%    100.00% |         155      0.00%    100.00% |          29      0.00%    100.00% |           4      0.00%    100.00% |           0      0.00%    100.00% |           0      0.00%    100.00% |           0      0.00%    100.00% (Unspecified)
system.caches.RequestType.LD.latency_hist_seqr::total     87121179                       (Unspecified)
system.caches.RequestType.LD.hit_latency_hist_seqr::bucket_size            1                       (Unspecified)
system.caches.RequestType.LD.hit_latency_hist_seqr::max_bucket            9                       (Unspecified)
system.caches.RequestType.LD.hit_latency_hist_seqr::samples     84995299                       (Unspecified)
system.caches.RequestType.LD.hit_latency_hist_seqr::mean     1.001750                       (Unspecified)
system.caches.RequestType.LD.hit_latency_hist_seqr::gmean     1.001214                       (Unspecified)
system.caches.RequestType.LD.hit_latency_hist_seqr::stdev     0.041800                       (Unspecified)
system.caches.RequestType.LD.hit_latency_hist_seqr |           0      0.00%      0.00% |    84846531     99.82%     99.82% |      148768      0.18%    100.00% |           0      0.00%    100.00% |           0      0.00%    100.00% |           0      0.00%    100.00% |           0      0.00%    100.00% |           0      0.00%    100.00% |           0      0.00%    100.00% |           0      0.00%    100.00% (Unspecified)
system.caches.RequestType.LD.hit_latency_hist_seqr::total     84995299                       (Unspecified)
system.caches.RequestType.LD.miss_latency_hist_seqr::bucket_size         1024                       (Unspecified)
system.caches.RequestType.LD.miss_latency_hist_seqr::max_bucket        10239                       (Unspecified)
system.caches.RequestType.LD.miss_latency_hist_seqr::samples      2125880                       (Unspecified)
system.caches.RequestType.LD.miss_latency_hist_seqr::mean   608.902576                       (Unspecified)
system.caches.RequestType.LD.miss_latency_hist_seqr::gmean   374.907396                       (Unspecified)
system.caches.RequestType.LD.miss_latency_hist_seqr::stdev   426.563443                       (Unspecified)
system.caches.RequestType.LD.miss_latency_hist_seqr |     1870200     87.97%     87.97% |      232675     10.94%     98.92% |       21318      1.00%     99.92% |        1499      0.07%     99.99% |         155      0.01%    100.00% |          29      0.00%    100.00% |           4      0.00%    100.00% |           0      0.00%    100.00% |           0      0.00%    100.00% |           0      0.00%    100.00% (Unspecified)
system.caches.RequestType.LD.miss_latency_hist_seqr::total      2125880                       (Unspecified)
system.caches.RequestType.ST.latency_hist_seqr::bucket_size          512                       (Unspecified)
system.caches.RequestType.ST.latency_hist_seqr::max_bucket         5119                       (Unspecified)
system.caches.RequestType.ST.latency_hist_seqr::samples      2560383                       (Unspecified)
system.caches.RequestType.ST.latency_hist_seqr::mean     2.063063                       (Unspecified)
system.caches.RequestType.ST.latency_hist_seqr::gmean     1.475551                       (Unspecified)
system.caches.RequestType.ST.latency_hist_seqr::stdev    19.732344                       (Unspecified)
system.caches.RequestType.ST.latency_hist_seqr |     2559520     99.97%     99.97% |         569      0.02%     99.99% |         240      0.01%    100.00% |          35      0.00%    100.00% |          12      0.00%    100.00% |           6      0.00%    100.00% |           1      0.00%    100.00% |           0      0.00%    100.00% |           0      0.00%    100.00% |           0      0.00%    100.00% (Unspecified)
system.caches.RequestType.ST.latency_hist_seqr::total      2560383                       (Unspecified)
system.caches.RequestType.ST.hit_latency_hist_seqr::bucket_size          256                       (Unspecified)
system.caches.RequestType.ST.hit_latency_hist_seqr::max_bucket         2559                       (Unspecified)
system.caches.RequestType.ST.hit_latency_hist_seqr::samples      2543964                       (Unspecified)
system.caches.RequestType.ST.hit_latency_hist_seqr::mean     1.540990                       (Unspecified)
system.caches.RequestType.ST.hit_latency_hist_seqr::gmean     1.448262                       (Unspecified)
system.caches.RequestType.ST.hit_latency_hist_seqr::stdev     2.236402                       (Unspecified)
system.caches.RequestType.ST.hit_latency_hist_seqr |     2543934    100.00%    100.00% |          17      0.00%    100.00% |           6      0.00%    100.00% |           4      0.00%    100.00% |           2      0.00%    100.00% |           1      0.00%    100.00% |           0      0.00%    100.00% |           0      0.00%    100.00% |           0      0.00%    100.00% |           0      0.00%    100.00% (Unspecified)
system.caches.RequestType.ST.hit_latency_hist_seqr::total      2543964                       (Unspecified)
system.caches.RequestType.ST.miss_latency_hist_seqr::bucket_size          512                       (Unspecified)
system.caches.RequestType.ST.miss_latency_hist_seqr::max_bucket         5119                       (Unspecified)
system.caches.RequestType.ST.miss_latency_hist_seqr::samples        16419                       (Unspecified)
system.caches.RequestType.ST.miss_latency_hist_seqr::mean    82.953225                       (Unspecified)
system.caches.RequestType.ST.miss_latency_hist_seqr::gmean    26.612624                       (Unspecified)
system.caches.RequestType.ST.miss_latency_hist_seqr::stdev   230.999092                       (Unspecified)
system.caches.RequestType.ST.miss_latency_hist_seqr |       15569     94.82%     94.82% |         559      3.40%     98.23% |         237      1.44%     99.67% |          35      0.21%     99.88% |          12      0.07%     99.96% |           6      0.04%     99.99% |           1      0.01%    100.00% |           0      0.00%    100.00% |           0      0.00%    100.00% |           0      0.00%    100.00% (Unspecified)
system.caches.RequestType.ST.miss_latency_hist_seqr::total        16419                       (Unspecified)
system.caches.RequestType.IFETCH.latency_hist_seqr::bucket_size          512                       (Unspecified)
system.caches.RequestType.IFETCH.latency_hist_seqr::max_bucket         5119                       (Unspecified)
system.caches.RequestType.IFETCH.latency_hist_seqr::samples     82447568                       (Unspecified)
system.caches.RequestType.IFETCH.latency_hist_seqr::mean     1.032315                       (Unspecified)
system.caches.RequestType.IFETCH.latency_hist_seqr::gmean     1.001240                       (Unspecified)
system.caches.RequestType.IFETCH.latency_hist_seqr::stdev     3.662819                       (Unspecified)
system.caches.RequestType.IFETCH.latency_hist_seqr |    82447016    100.00%    100.00% |         388      0.00%    100.00% |         112      0.00%    100.00% |          39      0.00%    100.00% |           4      0.00%    100.00% |           9      0.00%    100.00% |           0      0.00%    100.00% |           0      0.00%    100.00% |           0      0.00%    100.00% |           0      0.00%    100.00% (Unspecified)
system.caches.RequestType.IFETCH.latency_hist_seqr::total     82447568                       (Unspecified)
system.caches.RequestType.IFETCH.hit_latency_hist_seqr::bucket_size            1                       (Unspecified)
system.caches.RequestType.IFETCH.hit_latency_hist_seqr::max_bucket            9                       (Unspecified)
system.caches.RequestType.IFETCH.hit_latency_hist_seqr::samples     82416993                       (Unspecified)
system.caches.RequestType.IFETCH.hit_latency_hist_seqr::mean     1.000000                       (Unspecified)
system.caches.RequestType.IFETCH.hit_latency_hist_seqr::gmean     1.000000                       (Unspecified)
system.caches.RequestType.IFETCH.hit_latency_hist_seqr::stdev     0.000156                       (Unspecified)
[...]
system.o3Cpu7.iew.predictedTakenIncorrect       348370                       # Number of branches that were predicted taken incorrectly (Count)
system.o3Cpu7.iew.predictedNotTakenIncorrect       339735                       # Number of branches that were predicted not taken incorrectly (Count)
system.o3Cpu7.iew.branchMispredicts            688105                       # Number of branch mispredicts detected at execute (Count)
system.o3Cpu7.iew.instsToCommit              74229739                       # Cumulative count of insts sent to commit (Count)
system.o3Cpu7.iew.writebackCount             73673648                       # Cumulative count of insts written-back (Count)
system.o3Cpu7.iew.producerInst               61188548                       # Number of instructions producing a value (Count)
system.o3Cpu7.iew.consumerInst               87394004                       # Number of instructions consuming a value (Count)
system.o3Cpu7.iew.wbRate                     0.527414                       # Insts written-back per cycle ((Count/Cycle))
system.o3Cpu7.iew.wbFanout                   0.700146                       # Average fanout of values written-back ((Count/Count))
system.o3Cpu7.interrupts.clk_domain.clock         3200                       # Clock period in ticks (Tick)
system.o3Cpu7.lsq0.forwLoads                   159946                       # Number of loads that had data forwarded from stores (Count)
system.o3Cpu7.lsq0.squashedLoads              7687689                       # Number of loads squashed (Count)
system.o3Cpu7.lsq0.ignoredResponses                23                       # Number of memory responses ignored because the instruction is squashed (Count)
system.o3Cpu7.lsq0.memOrderViolation              360                       # Number of memory ordering violations (Count)
system.o3Cpu7.lsq0.squashedStores              614136                       # Number of stores squashed (Count)
system.o3Cpu7.lsq0.rescheduledLoads                23                       # Number of loads that were rescheduled (Count)
system.o3Cpu7.lsq0.blockedByCache                 794                       # Number of times an access to memory failed due to the cache being blocked (Count)
system.o3Cpu7.lsq0.loadToUse::samples         7478027                       # Distribution of cycle latency between the first time a load is issued and its completion (Unspecified)
system.o3Cpu7.lsq0.loadToUse::mean          52.037591                       # Distribution of cycle latency between the first time a load is issued and its completion (Unspecified)
system.o3Cpu7.lsq0.loadToUse::stdev        186.041368                       # Distribution of cycle latency between the first time a load is issued and its completion (Unspecified)
system.o3Cpu7.lsq0.loadToUse::0-9             6820474     91.21%     91.21% # Distribution of cycle latency between the first time a load is issued and its completion (Unspecified)
system.o3Cpu7.lsq0.loadToUse::10-19             22893      0.31%     91.51% # Distribution of cycle latency between the first time a load is issued and its completion (Unspecified)
system.o3Cpu7.lsq0.loadToUse::20-29             13841      0.19%     91.70% # Distribution of cycle latency between the first time a load is issued and its completion (Unspecified)
system.o3Cpu7.lsq0.loadToUse::30-39              1591      0.02%     91.72% # Distribution of cycle latency between the first time a load is issued and its completion (Unspecified)
system.o3Cpu7.lsq0.loadToUse::40-49               974      0.01%     91.73% # Distribution of cycle latency between the first time a load is issued and its completion (Unspecified)
system.o3Cpu7.lsq0.loadToUse::50-59               542      0.01%     91.74% # Distribution of cycle latency between the first time a load is issued and its completion (Unspecified)
system.o3Cpu7.lsq0.loadToUse::60-69               643      0.01%     91.75% # Distribution of cycle latency between the first time a load is issued and its completion (Unspecified)
system.o3Cpu7.lsq0.loadToUse::70-79               610      0.01%     91.76% # Distribution of cycle latency between the first time a load is issued and its completion (Unspecified)
system.o3Cpu7.lsq0.loadToUse::80-89               458      0.01%     91.76% # Distribution of cycle latency between the first time a load is issued and its completion (Unspecified)
system.o3Cpu7.lsq0.loadToUse::90-99               504      0.01%     91.77% # Distribution of cycle latency between the first time a load is issued and its completion (Unspecified)
system.o3Cpu7.lsq0.loadToUse::100-109             510      0.01%     91.78% # Distribution of cycle latency between the first time a load is issued and its completion (Unspecified)
system.o3Cpu7.lsq0.loadToUse::110-119             471      0.01%     91.78% # Distribution of cycle latency between the first time a load is issued and its completion (Unspecified)
system.o3Cpu7.lsq0.loadToUse::120-129             471      0.01%     91.79% # Distribution of cycle latency between the first time a load is issued and its completion (Unspecified)
system.o3Cpu7.lsq0.loadToUse::130-139             602      0.01%     91.80% # Distribution of cycle latency between the first time a load is issued and its completion (Unspecified)
system.o3Cpu7.lsq0.loadToUse::140-149             566      0.01%     91.80% # Distribution of cycle latency between the first time a load is issued and its completion (Unspecified)
system.o3Cpu7.lsq0.loadToUse::150-159             564      0.01%     91.81% # Distribution of cycle latency between the first time a load is issued and its completion (Unspecified)
system.o3Cpu7.lsq0.loadToUse::160-169             578      0.01%     91.82% # Distribution of cycle latency between the first time a load is issued and its completion (Unspecified)
system.o3Cpu7.lsq0.loadToUse::170-179             688      0.01%     91.83% # Distribution of cycle latency between the first time a load is issued and its completion (Unspecified)
system.o3Cpu7.lsq0.loadToUse::180-189             813      0.01%     91.84% # Distribution of cycle latency between the first time a load is issued and its completion (Unspecified)
system.o3Cpu7.lsq0.loadToUse::190-199             696      0.01%     91.85% # Distribution of cycle latency between the first time a load is issued and its completion (Unspecified)
system.o3Cpu7.lsq0.loadToUse::200-209             701      0.01%     91.86% # Distribution of cycle latency between the first time a load is issued and its completion (Unspecified)
system.o3Cpu7.lsq0.loadToUse::210-219             760      0.01%     91.87% # Distribution of cycle latency between the first time a load is issued and its completion (Unspecified)
system.o3Cpu7.lsq0.loadToUse::220-229             772      0.01%     91.88% # Distribution of cycle latency between the first time a load is issued and its completion (Unspecified)
system.o3Cpu7.lsq0.loadToUse::230-239             851      0.01%     91.89% # Distribution of cycle latency between the first time a load is issued and its completion (Unspecified)
system.o3Cpu7.lsq0.loadToUse::240-249             814      0.01%     91.90% # Distribution of cycle latency between the first time a load is issued and its completion (Unspecified)
system.o3Cpu7.lsq0.loadToUse::250-259             603      0.01%     91.91% # Distribution of cycle latency between the first time a load is issued and its completion (Unspecified)
system.o3Cpu7.lsq0.loadToUse::260-269             568      0.01%     91.92% # Distribution of cycle latency between the first time a load is issued and its completion (Unspecified)
system.o3Cpu7.lsq0.loadToUse::270-279             685      0.01%     91.93% # Distribution of cycle latency between the first time a load is issued and its completion (Unspecified)
system.o3Cpu7.lsq0.loadToUse::280-289             595      0.01%     91.93% # Distribution of cycle latency between the first time a load is issued and its completion (Unspecified)
system.o3Cpu7.lsq0.loadToUse::290-299             640      0.01%     91.94% # Distribution of cycle latency between the first time a load is issued and its completion (Unspecified)
system.o3Cpu7.lsq0.loadToUse::overflows        602549      8.06%    100.00% # Distribution of cycle latency between the first time a load is issued and its completion (Unspecified)
system.o3Cpu7.lsq0.loadToUse::min_value             2                       # Distribution of cycle latency between the first time a load is issued and its completion (Unspecified)
system.o3Cpu7.lsq0.loadToUse::max_value          5816                       # Distribution of cycle latency between the first time a load is issued and its completion (Unspecified)
system.o3Cpu7.lsq0.loadToUse::total           7478027                       # Distribution of cycle latency between the first time a load is issued and its completion (Unspecified)
system.o3Cpu7.mmu.dtb.rdAccesses             12434085                       # TLB accesses on read requests (Count)
system.o3Cpu7.mmu.dtb.wrAccesses               499463                       # TLB accesses on write requests (Count)
system.o3Cpu7.mmu.dtb.rdMisses                  23465                       # TLB misses on read requests (Count)
system.o3Cpu7.mmu.dtb.wrMisses                    903                       # TLB misses on write requests (Count)
system.o3Cpu7.mmu.dtb.walker.power_state.pwrStateResidencyTicks::UNDEFINED  29330069799                       # Cumulative time (in ticks) in various power states (Tick)
system.o3Cpu7.mmu.itb.rdAccesses                    0                       # TLB accesses on read requests (Count)
system.o3Cpu7.mmu.itb.wrAccesses             10249495                       # TLB accesses on write requests (Count)
system.o3Cpu7.mmu.itb.rdMisses                      0                       # TLB misses on read requests (Count)
system.o3Cpu7.mmu.itb.wrMisses                    196                       # TLB misses on write requests (Count)
system.o3Cpu7.mmu.itb.walker.power_state.pwrStateResidencyTicks::UNDEFINED  29330069799                       # Cumulative time (in ticks) in various power states (Tick)
system.o3Cpu7.power_state.numTransitions            6                       # Number of power state transitions (Count)
system.o3Cpu7.power_state.ticksClkGated::samples            3                       # Distribution of time spent in the clock gated state (Tick)
system.o3Cpu7.power_state.ticksClkGated::mean    125660400                       # Distribution of time spent in the clock gated state (Tick)
system.o3Cpu7.power_state.ticksClkGated::stdev 125122742.077849                       # Distribution of time spent in the clock gated state (Tick)
system.o3Cpu7.power_state.ticksClkGated::1000-5e+10            3    100.00%    100.00% # Distribution of time spent in the clock gated state (Tick)
system.o3Cpu7.power_state.ticksClkGated::min_value     41313800                       # Distribution of time spent in the clock gated state (Tick)
system.o3Cpu7.power_state.ticksClkGated::max_value    269420800                       # Distribution of time spent in the clock gated state (Tick)
system.o3Cpu7.power_state.ticksClkGated::total            3                       # Distribution of time spent in the clock gated state (Tick)
system.o3Cpu7.power_state.pwrStateResidencyTicks::ON  22186919000                       # Cumulative time (in ticks) in various power states (Tick)
system.o3Cpu7.power_state.pwrStateResidencyTicks::CLK_GATED    376981200                       # Cumulative time (in ticks) in various power states (Tick)
system.o3Cpu7.power_state.pwrStateResidencyTicks::OFF   6766169599                       # Cumulative time (in ticks) in various power states (Tick)
system.o3Cpu7.rename.squashCycles              625256                       # Number of cycles rename is squashing (Cycle)
system.o3Cpu7.rename.idleCycles               7697884                       # Number of cycles rename is idle (Cycle)
system.o3Cpu7.rename.blockCycles            101914742                       # Number of cycles rename is blocking (Cycle)
system.o3Cpu7.rename.serializeStallCycles       151514                       # count of cycles rename stalled for serializing inst (Cycle)
system.o3Cpu7.rename.runCycles               14344352                       # Number of cycles rename is running (Cycle)
system.o3Cpu7.rename.unblockCycles           14820279                       # Number of cycles rename is unblocking (Cycle)
system.o3Cpu7.rename.renamedInsts            93755149                       # Number of instructions processed by rename (Count)
system.o3Cpu7.rename.ROBFullEvents             412130                       # Number of times rename has blocked due to ROB full (Count)
system.o3Cpu7.rename.IQFullEvents             6293275                       # Number of times rename has blocked due to IQ full (Count)
system.o3Cpu7.rename.LQFullEvents            12812116                       # Number of times rename has blocked due to LQ full (Count)
system.o3Cpu7.rename.SQFullEvents               22765                       # Number of times rename has blocked due to SQ full (Count)
system.o3Cpu7.rename.renamedOperands        172572548                       # Number of destination operands rename has renamed (Count)
system.o3Cpu7.rename.lookups                326933277                       # Number of register rename lookups that rename has made (Count)
system.o3Cpu7.rename.intLookups             120873295                       # Number of integer rename lookups (Count)
system.o3Cpu7.rename.fpLookups                    512                       # Number of floating rename lookups (Count)
system.o3Cpu7.rename.committedMaps           87013736                       # Number of HB maps that are committed (Count)
system.o3Cpu7.rename.undoneMaps              85558716                       # Number of HB maps that are undone due to squashing (Count)
system.o3Cpu7.rename.serializing                 1748                       # count of serializing insts renamed (Count)
system.o3Cpu7.rename.tempSerializing             1806                       # count of temporary serializing insts renamed (Count)
system.o3Cpu7.rename.skidInsts                6750260                       # count of insts added to the skid buffer (Count)
system.o3Cpu7.rob.reads                     221560502                       # The number of ROB reads (Count)
system.o3Cpu7.rob.writes                    185832829                       # The number of ROB writes (Count)
system.o3Cpu7.thread_0.numInsts              29613931                       # Number of Instructions committed (Count)
system.o3Cpu7.thread_0.numOps                47364194                       # Number of Ops committed (Count)
system.o3Cpu7.thread_0.numMemRefs                   0                       # Number of Memory References (Count)
system.pc.bad_addr.power_state.pwrStateResidencyTicks::UNDEFINED  29330069799                       # Cumulative time (in ticks) in various power states (Tick)
system.pc.com_1.power_state.pwrStateResidencyTicks::UNDEFINED  29330069799                       # Cumulative time (in ticks) in various power states (Tick)
system.pc.default_bus.power_state.pwrStateResidencyTicks::UNDEFINED  29330069799                       # Cumulative time (in ticks) in various power states (Tick)
system.pc.empty_isa.power_state.pwrStateResidencyTicks::UNDEFINED  29330069799                       # Cumulative time (in ticks) in various power states (Tick)
system.pc.fake_com_2.power_state.pwrStateResidencyTicks::UNDEFINED  29330069799                       # Cumulative time (in ticks) in various power states (Tick)
system.pc.fake_com_3.power_state.pwrStateResidencyTicks::UNDEFINED  29330069799                       # Cumulative time (in ticks) in various power states (Tick)
system.pc.fake_com_4.power_state.pwrStateResidencyTicks::UNDEFINED  29330069799                       # Cumulative time (in ticks) in various power states (Tick)
system.pc.fake_floppy.power_state.pwrStateResidencyTicks::UNDEFINED  29330069799                       # Cumulative time (in ticks) in various power states (Tick)
system.pc.pci_host.power_state.pwrStateResidencyTicks::UNDEFINED  29330069799                       # Cumulative time (in ticks) in various power states (Tick)
system.pc.south_bridge.cmos.power_state.pwrStateResidencyTicks::UNDEFINED  29330069799                       # Cumulative time (in ticks) in various power states (Tick)
system.pc.south_bridge.dma1.power_state.pwrStateResidencyTicks::UNDEFINED  29330069799                       # Cumulative time (in ticks) in various power states (Tick)
system.pc.south_bridge.ide.disks0.IdeDisk.dmaReadFullPages            0                       # Number of full page size DMA reads (not PRD). (Count)
system.pc.south_bridge.ide.disks0.IdeDisk.dmaReadBytes            0                       # Number of bytes transfered via DMA reads (not PRD). (Byte)
system.pc.south_bridge.ide.disks0.IdeDisk.dmaReadTxs            0                       # Number of DMA read transactions (not PRD). (Count)
system.pc.south_bridge.ide.disks0.IdeDisk.dmaWriteFullPages            0                       # Number of full page size DMA writes. (Count)
system.pc.south_bridge.ide.disks0.IdeDisk.dmaWriteBytes            0                       # Number of bytes transfered via DMA writes. (Byte)
system.pc.south_bridge.ide.disks0.IdeDisk.dmaWriteTxs            0                       # Number of DMA write transactions. (Count)
system.pc.south_bridge.ide.disks1.IdeDisk.dmaReadFullPages            0                       # Number of full page size DMA reads (not PRD). (Count)
system.pc.south_bridge.ide.disks1.IdeDisk.dmaReadBytes            0                       # Number of bytes transfered via DMA reads (not PRD). (Byte)
system.pc.south_bridge.ide.disks1.IdeDisk.dmaReadTxs            0                       # Number of DMA read transactions (not PRD). (Count)
system.pc.south_bridge.ide.disks1.IdeDisk.dmaWriteFullPages            0                       # Number of full page size DMA writes. (Count)
system.pc.south_bridge.ide.disks1.IdeDisk.dmaWriteBytes            0                       # Number of bytes transfered via DMA writes. (Byte)
system.pc.south_bridge.ide.disks1.IdeDisk.dmaWriteTxs            0                       # Number of DMA write transactions. (Count)
system.pc.south_bridge.ide.power_state.pwrStateResidencyTicks::UNDEFINED  29330069799                       # Cumulative time (in ticks) in various power states (Tick)
system.pc.south_bridge.io_apic.power_state.pwrStateResidencyTicks::UNDEFINED  29330069799                       # Cumulative time (in ticks) in various power states (Tick)
system.pc.south_bridge.keyboard.power_state.pwrStateResidencyTicks::UNDEFINED  29330069799                       # Cumulative time (in ticks) in various power states (Tick)
system.pc.south_bridge.pic1.power_state.pwrStateResidencyTicks::UNDEFINED  29330069799                       # Cumulative time (in ticks) in various power states (Tick)
system.pc.south_bridge.pic2.power_state.pwrStateResidencyTicks::UNDEFINED  29330069799                       # Cumulative time (in ticks) in various power states (Tick)
system.pc.south_bridge.pit.power_state.pwrStateResidencyTicks::UNDEFINED  29330069799                       # Cumulative time (in ticks) in various power states (Tick)
system.pc.south_bridge.speaker.power_state.pwrStateResidencyTicks::UNDEFINED  29330069799                       # Cumulative time (in ticks) in various power states (Tick)
system.workload.inst.arm                            0                       # number of arm instructions executed (Count)
system.workload.inst.quiesce                        0                       # number of quiesce instructions executed (Count)

---------- End Simulation Statistics   ----------
