
---------- Begin Simulation Statistics ----------
simSeconds                                   0.028503                       # Number of seconds simulated (Second)
simTicks                                  28503131250                       # Number of ticks simulated (Tick)
finalTick                                108077883232200                       # Number of ticks from beginning of simulation (restored from checkpoints and never reset) (Tick)
simFreq                                  1000000000000                       # The number of ticks per simulated second ((Tick/Second))
hostSeconds                                   8912.03                       # Real time elapsed on the host (Second)
hostTickRate                                  3198276                       # The number of ticks simulated per host second (ticks/s) ((Tick/Second))
hostMemory                                   19998976                       # Number of bytes of host memory used (Byte)
simInsts                                    230002026                       # Number of instructions simulated (Count)
simOps                                      424097673                       # Number of ops (including micro ops) simulated (Count)
hostInstRate                                    25808                       # Simulator instruction rate (inst/s) ((Count/Second))
hostOpRate                                      47587                       # Simulator op (including micro ops) rate (op/s) ((Count/Second))
system.caches.delayHistogram::bucket_size           32                       # delay histogram for all message (Unspecified)
system.caches.delayHistogram::max_bucket          319                       # delay histogram for all message (Unspecified)
system.caches.delayHistogram::samples        79260739                       # delay histogram for all message (Unspecified)
system.caches.delayHistogram::mean           5.134658                       # delay histogram for all message (Unspecified)
system.caches.delayHistogram::stdev         11.502871                       # delay histogram for all message (Unspecified)
system.caches.delayHistogram             |    74674374     94.21%     94.21% |     4374492      5.52%     99.73% |      211868      0.27%    100.00% |           3      0.00%    100.00% |           0      0.00%    100.00% |           1      0.00%    100.00% |           0      0.00%    100.00% |           1      0.00%    100.00% |           0      0.00%    100.00% |           0      0.00%    100.00% # delay histogram for all message (Unspecified)
system.caches.delayHistogram::total          79260739                       # delay histogram for all message (Unspecified)
system.caches.m_outstandReqHistSeqr::bucket_size            2                       (Unspecified)
system.caches.m_outstandReqHistSeqr::max_bucket           19                       (Unspecified)
system.caches.m_outstandReqHistSeqr::samples     54513956                       (Unspecified)
system.caches.m_outstandReqHistSeqr::mean     9.660289                       (Unspecified)
system.caches.m_outstandReqHistSeqr::gmean     8.292689                       (Unspecified)
system.caches.m_outstandReqHistSeqr::stdev     4.003442                       (Unspecified)
system.caches.m_outstandReqHistSeqr      |     3238794      5.94%      5.94% |     1701622      3.12%      9.06% |     3541392      6.50%     15.56% |     6028668     11.06%     26.62% |     9266788     17.00%     43.62% |    12225217     22.43%     66.04% |     8826186     16.19%     82.23% |     5510418     10.11%     92.34% |     4174871      7.66%    100.00% |           0      0.00%    100.00% (Unspecified)
system.caches.m_outstandReqHistSeqr::total     54513956                       (Unspecified)
system.caches.m_latencyHistSeqr::bucket_size          512                       (Unspecified)
system.caches.m_latencyHistSeqr::max_bucket         5119                       (Unspecified)
system.caches.m_latencyHistSeqr::samples     54515790                       (Unspecified)
system.caches.m_latencyHistSeqr::mean       60.512302                       (Unspecified)
system.caches.m_latencyHistSeqr::gmean       5.783516                       (Unspecified)
system.caches.m_latencyHistSeqr::stdev     170.069872                       (Unspecified)
system.caches.m_latencyHistSeqr          |    53154332     97.50%     97.50% |     1253586      2.30%     99.80% |       27796      0.05%     99.85% |        8928      0.02%     99.87% |       61899      0.11%     99.98% |        8567      0.02%    100.00% |         579      0.00%    100.00% |          92      0.00%    100.00% |          11      0.00%    100.00% |           0      0.00%    100.00% (Unspecified)
system.caches.m_latencyHistSeqr::total       54515790                       (Unspecified)
system.caches.m_hitLatencyHistSeqr::bucket_size          512                       (Unspecified)
system.caches.m_hitLatencyHistSeqr::max_bucket         5119                       (Unspecified)
system.caches.m_hitLatencyHistSeqr::samples     29403288                       (Unspecified)
system.caches.m_hitLatencyHistSeqr::mean     1.118817                       (Unspecified)
system.caches.m_hitLatencyHistSeqr::gmean     1.076191                       (Unspecified)
system.caches.m_hitLatencyHistSeqr::stdev     2.406997                       (Unspecified)
system.caches.m_hitLatencyHistSeqr       |    29403188    100.00%    100.00% |          61      0.00%    100.00% |          24      0.00%    100.00% |          10      0.00%    100.00% |           4      0.00%    100.00% |           0      0.00%    100.00% |           1      0.00%    100.00% |           0      0.00%    100.00% |           0      0.00%    100.00% |           0      0.00%    100.00% (Unspecified)
system.caches.m_hitLatencyHistSeqr::total     29403288                       (Unspecified)
system.caches.m_missLatencyHistSeqr::bucket_size          512                       (Unspecified)
system.caches.m_missLatencyHistSeqr::max_bucket         5119                       (Unspecified)
system.caches.m_missLatencyHistSeqr::samples     25112502                       (Unspecified)
system.caches.m_missLatencyHistSeqr::mean   130.053910                       (Unspecified)
system.caches.m_missLatencyHistSeqr::gmean    41.426292                       (Unspecified)
system.caches.m_missLatencyHistSeqr::stdev   231.983563                       (Unspecified)
system.caches.m_missLatencyHistSeqr      |    23751144     94.58%     94.58% |     1253525      4.99%     99.57% |       27772      0.11%     99.68% |        8918      0.04%     99.72% |       61895      0.25%     99.96% |        8567      0.03%    100.00% |         578      0.00%    100.00% |          92      0.00%    100.00% |          11      0.00%    100.00% |           0      0.00%    100.00% (Unspecified)
system.caches.m_missLatencyHistSeqr::total     25112502                       (Unspecified)
system.caches.delayVCHist.vnet_0::bucket_size           32                       # delay histogram for vnet_0 (Unspecified)
system.caches.delayVCHist.vnet_0::max_bucket          319                       # delay histogram for vnet_0 (Unspecified)
system.caches.delayVCHist.vnet_0::samples     36587549                       # delay histogram for vnet_0 (Unspecified)
system.caches.delayVCHist.vnet_0::mean       0.220122                       # delay histogram for vnet_0 (Unspecified)
system.caches.delayVCHist.vnet_0::stdev      1.237781                       # delay histogram for vnet_0 (Unspecified)
system.caches.delayVCHist.vnet_0         |    36586833    100.00%    100.00% |         690      0.00%    100.00% |          22      0.00%    100.00% |           2      0.00%    100.00% |           0      0.00%    100.00% |           1      0.00%    100.00% |           0      0.00%    100.00% |           1      0.00%    100.00% |           0      0.00%    100.00% |           0      0.00%    100.00% # delay histogram for vnet_0 (Unspecified)
system.caches.delayVCHist.vnet_0::total      36587549                       # delay histogram for vnet_0 (Unspecified)
system.caches.delayVCHist.vnet_1::bucket_size           16                       # delay histogram for vnet_1 (Unspecified)
system.caches.delayVCHist.vnet_1::max_bucket          159                       # delay histogram for vnet_1 (Unspecified)
system.caches.delayVCHist.vnet_1::samples     42454632                       # delay histogram for vnet_1 (Unspecified)
system.caches.delayVCHist.vnet_1::mean       9.396404                       # delay histogram for vnet_1 (Unspecified)
system.caches.delayVCHist.vnet_1::stdev     14.373400                       # delay histogram for vnet_1 (Unspecified)
system.caches.delayVCHist.vnet_1         |    31326598     73.79%     73.79% |     6542385     15.41%     89.20% |     3376076      7.95%     97.15% |      997726      2.35%     99.50% |      202722      0.48%     99.98% |        9124      0.02%    100.00% |           1      0.00%    100.00% |           0      0.00%    100.00% |           0      0.00%    100.00% |           0      0.00%    100.00% # delay histogram for vnet_1 (Unspecified)
system.caches.delayVCHist.vnet_1::total      42454632                       # delay histogram for vnet_1 (Unspecified)
system.caches.delayVCHist.vnet_2::bucket_size            1                       # delay histogram for vnet_2 (Unspecified)
system.caches.delayVCHist.vnet_2::max_bucket            9                       # delay histogram for vnet_2 (Unspecified)
system.caches.delayVCHist.vnet_2::samples       218558                       # delay histogram for vnet_2 (Unspecified)
system.caches.delayVCHist.vnet_2::mean       0.009883                       # delay histogram for vnet_2 (Unspecified)
system.caches.delayVCHist.vnet_2::stdev      0.140895                       # delay histogram for vnet_2 (Unspecified)
system.caches.delayVCHist.vnet_2         |      217483     99.51%     99.51% |           0      0.00%     99.51% |        1070      0.49%    100.00% |           0      0.00%    100.00% |           5      0.00%    100.00% |           0      0.00%    100.00% |           0      0.00%    100.00% |           0      0.00%    100.00% |           0      0.00%    100.00% |           0      0.00%    100.00% # delay histogram for vnet_2 (Unspecified)
system.caches.delayVCHist.vnet_2::total        218558                       # delay histogram for vnet_2 (Unspecified)
system.caches.L1Cache_Controller.Load    |     6518994     12.29%     12.29% |     6643680     12.52%     24.81% |     6642157     12.52%     37.33% |     6751176     12.73%     50.05% |     6554827     12.36%     62.41% |     6656169     12.55%     74.96% |     6678939     12.59%     87.55% |     6607741     12.45%    100.00% (Unspecified)
system.caches.L1Cache_Controller.Load::total     53053683                       (Unspecified)
system.caches.L1Cache_Controller.Ifetch  |      105956     13.58%     13.58% |       96499     12.37%     25.96% |       96479     12.37%     38.33% |       96567     12.38%     50.71% |       94948     12.17%     62.88% |       95324     12.22%     75.10% |       96652     12.39%     87.49% |       97552     12.51%    100.00% (Unspecified)
system.caches.L1Cache_Controller.Ifetch::total       779977                       (Unspecified)
system.caches.L1Cache_Controller.Store   |       94091     13.79%     13.79% |       84169     12.34%     26.13% |       84153     12.34%     38.47% |       84196     12.34%     50.81% |       83169     12.19%     63.00% |       83269     12.21%     75.21% |       84105     12.33%     87.54% |       85009     12.46%    100.00% (Unspecified)
system.caches.L1Cache_Controller.Store::total       682161                       (Unspecified)
system.caches.L1Cache_Controller.Inv     |       25998     13.29%     13.29% |       24058     12.30%     25.59% |       24356     12.45%     38.04% |       24110     12.32%     50.36% |       23824     12.18%     62.54% |       23738     12.13%     74.67% |       24114     12.33%     87.00% |       25438     13.00%    100.00% (Unspecified)
system.caches.L1Cache_Controller.Inv::total       195636                       (Unspecified)
system.caches.L1Cache_Controller.L1_Replacement |     3186950     12.72%     12.72% |     3119833     12.45%     25.17% |     3116186     12.43%     37.60% |     3141204     12.53%     50.14% |     3129481     12.49%     62.62% |     3162879     12.62%     75.24% |     3135436     12.51%     87.76% |     3068537     12.24%    100.00% (Unspecified)
system.caches.L1Cache_Controller.L1_Replacement::total     25060506                       (Unspecified)
system.caches.L1Cache_Controller.Fwd_GETX |           8      9.76%      9.76% |          16     19.51%     29.27% |          13     15.85%     45.12% |          11     13.41%     58.54% |           5      6.10%     64.63% |           5      6.10%     70.73% |          10     12.20%     82.93% |          14     17.07%    100.00% (Unspecified)
system.caches.L1Cache_Controller.Fwd_GETX::total           82                       (Unspecified)
system.caches.L1Cache_Controller.Fwd_GETS |        3375     14.78%     14.78% |        2856     12.50%     27.28% |        2788     12.21%     39.49% |        2694     11.80%     51.28% |        2733     11.97%     63.25% |        2768     12.12%     75.37% |        2773     12.14%     87.51% |        2853     12.49%    100.00% (Unspecified)
system.caches.L1Cache_Controller.Fwd_GETS::total        22840                       (Unspecified)
system.caches.L1Cache_Controller.Data    |          60     80.00%     80.00% |           3      4.00%     84.00% |           2      2.67%     86.67% |           2      2.67%     89.33% |           2      2.67%     92.00% |           2      2.67%     94.67% |           3      4.00%     98.67% |           1      1.33%    100.00% (Unspecified)
system.caches.L1Cache_Controller.Data::total           75                       (Unspecified)
system.caches.L1Cache_Controller.Data_Exclusive |      724214     12.72%     12.72% |      709502     12.46%     25.17% |      708074     12.43%     37.60% |      713850     12.53%     50.14% |      711359     12.49%     62.63% |      718958     12.62%     75.25% |      712349     12.51%     87.76% |      697241     12.24%    100.00% (Unspecified)
system.caches.L1Cache_Controller.Data_Exclusive::total      5695547                       (Unspecified)
system.caches.L1Cache_Controller.DataS_fromL1 |        2781     12.18%     12.18% |        3111     13.62%     25.80% |        3113     13.63%     39.43% |        3045     13.33%     52.76% |        2680     11.73%     64.49% |        2822     12.36%     76.85% |        2630     11.51%     88.36% |        2658     11.64%    100.00% (Unspecified)
system.caches.L1Cache_Controller.DataS_fromL1::total        22840                       (Unspecified)
system.caches.L1Cache_Controller.Data_all_Acks |     2464571     12.72%     12.72% |     2411516     12.45%     25.17% |     2409187     12.43%     37.60% |     2428530     12.53%     50.13% |     2419558     12.49%     62.62% |     2445090     12.62%     75.24% |     2424551     12.51%     87.75% |     2372820     12.25%    100.00% (Unspecified)
system.caches.L1Cache_Controller.Data_all_Acks::total     19375823                       (Unspecified)
system.caches.L1Cache_Controller.Ack     |       16629     13.17%     13.17% |       15340     12.15%     25.32% |       16067     12.73%     38.05% |       15851     12.56%     50.61% |       15254     12.08%     62.69% |       16002     12.68%     75.37% |       15759     12.48%     87.85% |       15338     12.15%    100.00% (Unspecified)
system.caches.L1Cache_Controller.Ack::total       126240                       (Unspecified)
system.caches.L1Cache_Controller.Ack_all |        2540     13.89%     13.89% |        2208     12.07%     25.96% |        2311     12.63%     38.59% |        2281     12.47%     51.06% |        2187     11.96%     63.02% |        2295     12.55%     75.56% |        2268     12.40%     87.96% |        2202     12.04%    100.00% (Unspecified)
system.caches.L1Cache_Controller.Ack_all::total        18292                       (Unspecified)
system.caches.L1Cache_Controller.WB_Ack  |      732919     12.82%     12.82% |      711433     12.45%     25.27% |      709842     12.42%     37.69% |      715927     12.52%     50.21% |      713120     12.48%     62.69% |      720839     12.61%     75.30% |      714207     12.49%     87.79% |      697753     12.21%    100.00% (Unspecified)
system.caches.L1Cache_Controller.WB_Ack::total      5716040                       (Unspecified)
system.caches.L1Cache_Controller.NP.Load |     3181470     12.71%     12.71% |     3116380     12.45%     25.16% |     3112701     12.44%     37.60% |     3137737     12.54%     50.13% |     3126402     12.49%     62.62% |     3159791     12.62%     75.24% |     3131971     12.51%     87.76% |     3064880     12.24%    100.00% (Unspecified)
system.caches.L1Cache_Controller.NP.Load::total     25031332                       (Unspecified)
system.caches.L1Cache_Controller.NP.Ifetch |        2688     30.85%     30.85% |         937     10.75%     41.60% |         988     11.34%     52.94% |         958     10.99%     63.93% |         474      5.44%     69.37% |         476      5.46%     74.83% |         969     11.12%     85.95% |        1224     14.05%    100.00% (Unspecified)
system.caches.L1Cache_Controller.NP.Ifetch::total         8714                       (Unspecified)
system.caches.L1Cache_Controller.NP.Store |        3221     14.43%     14.43% |        2767     12.39%     26.82% |        2746     12.30%     39.12% |        2752     12.33%     51.45% |        2696     12.08%     63.53% |        2704     12.11%     75.64% |        2740     12.27%     87.91% |        2698     12.09%    100.00% (Unspecified)
system.caches.L1Cache_Controller.NP.Store::total        22324                       (Unspecified)
system.caches.L1Cache_Controller.NP.Inv  |       20210     13.26%     13.26% |       18833     12.36%     25.62% |       18932     12.42%     38.04% |       18853     12.37%     50.41% |       18830     12.36%     62.77% |       18617     12.22%     74.99% |       19066     12.51%     87.50% |       19053     12.50%    100.00% (Unspecified)
system.caches.L1Cache_Controller.NP.Inv::total       152394                       (Unspecified)
system.caches.L1Cache_Controller.I.Load  |         143      7.15%      7.15% |         337     16.86%     24.01% |         265     13.26%     37.27% |         318     15.91%     53.18% |         302     15.11%     68.28% |         168      8.40%     76.69% |         178      8.90%     85.59% |         288     14.41%    100.00% (Unspecified)
system.caches.L1Cache_Controller.I.Load::total         1999                       (Unspecified)
system.caches.L1Cache_Controller.I.Ifetch |        4109     13.74%     13.74% |        3709     12.40%     26.15% |        3674     12.29%     38.43% |        3661     12.24%     50.68% |        3724     12.45%     63.13% |        3733     12.48%     75.62% |        3674     12.29%     87.91% |        3616     12.09%    100.00% (Unspecified)
system.caches.L1Cache_Controller.I.Ifetch::total        29900                       (Unspecified)
system.caches.L1Cache_Controller.I.Store |           4      8.70%      8.70% |           4      8.70%     17.39% |           5     10.87%     28.26% |           6     13.04%     41.30% |           3      6.52%     47.83% |           3      6.52%     54.35% |           4      8.70%     63.04% |          17     36.96%    100.00% (Unspecified)
system.caches.L1Cache_Controller.I.Store::total           46                       (Unspecified)
system.caches.L1Cache_Controller.I.L1_Replacement |        1241     12.58%     12.58% |         971      9.85%     22.43% |        1276     12.94%     35.37% |        1074     10.89%     46.26% |         904      9.17%     55.42% |        1162     11.78%     67.21% |         988     10.02%     77.23% |        2246     22.77%    100.00% (Unspecified)
system.caches.L1Cache_Controller.I.L1_Replacement::total         9862                       (Unspecified)
system.caches.L1Cache_Controller.S.Load  |     1398889     11.05%     11.05% |     1676937     13.25%     24.30% |     1682923     13.30%     37.60% |     1700101     13.43%     51.03% |     1600107     12.64%     63.67% |     1579746     12.48%     76.15% |     1677412     13.25%     89.41% |     1340734     10.59%    100.00% (Unspecified)
system.caches.L1Cache_Controller.S.Load::total     12656849                       (Unspecified)
system.caches.L1Cache_Controller.S.Ifetch |       99159     13.38%     13.38% |       91853     12.39%     25.76% |       91817     12.38%     38.15% |       91948     12.40%     50.55% |       90750     12.24%     62.79% |       91115     12.29%     75.08% |       92009     12.41%     87.49% |       92712     12.51%    100.00% (Unspecified)
system.caches.L1Cache_Controller.S.Ifetch::total       741363                       (Unspecified)
system.caches.L1Cache_Controller.S.Store |        2480     13.61%     13.61% |        2205     12.10%     25.72% |        2309     12.67%     38.39% |        2279     12.51%     50.90% |        2185     11.99%     62.90% |        2293     12.59%     75.48% |        2265     12.43%     87.92% |        2201     12.08%    100.00% (Unspecified)
system.caches.L1Cache_Controller.S.Store::total        18217                       (Unspecified)
system.caches.L1Cache_Controller.S.Inv   |        5652     14.34%     14.34% |        5054     12.83%     27.17% |        4859     12.33%     39.50% |        4952     12.57%     52.07% |        4643     11.78%     63.85% |        4723     11.99%     75.84% |        4667     11.84%     87.68% |        4855     12.32%    100.00% (Unspecified)
system.caches.L1Cache_Controller.S.Inv::total        39405                       (Unspecified)
system.caches.L1Cache_Controller.S.L1_Replacement |     2452788     12.69%     12.69% |     2407429     12.45%     25.14% |     2405068     12.44%     37.58% |     2424202     12.54%     50.11% |     2415457     12.49%     62.61% |     2440878     12.62%     75.23% |     2420241     12.52%     87.75% |     2368538     12.25%    100.00% (Unspecified)
system.caches.L1Cache_Controller.S.L1_Replacement::total     19334601                       (Unspecified)
system.caches.L1Cache_Controller.E.Load  |     1884324     12.58%     12.58% |     1802488     12.03%     24.61% |     1798181     12.00%     36.61% |     1866671     12.46%     49.07% |     1781547     11.89%     60.97% |     1871188     12.49%     73.46% |     1822269     12.16%     85.62% |     2154346     14.38%    100.00% (Unspecified)
system.caches.L1Cache_Controller.E.Load::total     14981014                       (Unspecified)
system.caches.L1Cache_Controller.E.Store |        5323     12.88%     12.88% |        5181     12.53%     25.41% |        5082     12.29%     37.70% |        5120     12.38%     50.09% |        5180     12.53%     62.62% |        5081     12.29%     74.91% |        5144     12.44%     87.35% |        5230     12.65%    100.00% (Unspecified)
system.caches.L1Cache_Controller.E.Store::total        41341                       (Unspecified)
system.caches.L1Cache_Controller.E.Inv   |         107      3.00%      3.00% |         155      4.34%      7.34% |         512     14.34%     21.67% |         275      7.70%     29.38% |         331      9.27%     38.64% |         393     11.01%     49.65% |         365     10.22%     59.87% |        1433     40.13%    100.00% (Unspecified)
system.caches.L1Cache_Controller.E.Inv::total         3571                       (Unspecified)
system.caches.L1Cache_Controller.E.L1_Replacement |      716046     12.69%     12.69% |      703308     12.46%     25.15% |      701724     12.44%     37.59% |      707724     12.54%     50.13% |      705134     12.50%     62.63% |      712675     12.63%     75.26% |      706127     12.51%     87.77% |      689802     12.23%    100.00% (Unspecified)
system.caches.L1Cache_Controller.E.L1_Replacement::total      5642540                       (Unspecified)
system.caches.L1Cache_Controller.E.Fwd_GETX |           1      5.26%      5.26% |           4     21.05%     26.32% |           3     15.79%     42.11% |           1      5.26%     47.37% |           0      0.00%     47.37% |           0      0.00%     47.37% |           1      5.26%     52.63% |           9     47.37%    100.00% (Unspecified)
system.caches.L1Cache_Controller.E.Fwd_GETX::total           19                       (Unspecified)
system.caches.L1Cache_Controller.E.Fwd_GETS |        1114     17.08%     17.08% |         844     12.94%     30.02% |         797     12.22%     42.24% |         759     11.64%     53.87% |         671     10.29%     64.16% |         857     13.14%     77.30% |         721     11.05%     88.35% |         760     11.65%    100.00% (Unspecified)
system.caches.L1Cache_Controller.E.Fwd_GETS::total         6523                       (Unspecified)
system.caches.L1Cache_Controller.M.Load  |       54168     14.16%     14.16% |       47538     12.43%     26.59% |       48087     12.57%     39.16% |       46349     12.12%     51.28% |       46469     12.15%     63.43% |       45276     11.84%     75.27% |       47109     12.32%     87.58% |       47493     12.42%    100.00% (Unspecified)
system.caches.L1Cache_Controller.M.Load::total       382489                       (Unspecified)
system.caches.L1Cache_Controller.M.Store |       83063     13.84%     13.84% |       74012     12.33%     26.17% |       74011     12.33%     38.50% |       74039     12.34%     50.83% |       73105     12.18%     63.01% |       73188     12.19%     75.21% |       73951     12.32%     87.53% |       74863     12.47%    100.00% (Unspecified)
system.caches.L1Cache_Controller.M.Store::total       600232                       (Unspecified)
system.caches.L1Cache_Controller.M.Inv   |          28     14.58%     14.58% |          10      5.21%     19.79% |          23     11.98%     31.77% |          12      6.25%     38.02% |          10      5.21%     43.23% |           1      0.52%     43.75% |          13      6.77%     50.52% |          95     49.48%    100.00% (Unspecified)
system.caches.L1Cache_Controller.M.Inv::total          192                       (Unspecified)
system.caches.L1Cache_Controller.M.L1_Replacement |       16875     22.96%     22.96% |        8125     11.05%     34.01% |        8118     11.04%     45.06% |        8204     11.16%     56.22% |        7986     10.86%     67.08% |        8164     11.11%     78.19% |        8080     10.99%     89.18% |        7951     10.82%    100.00% (Unspecified)
system.caches.L1Cache_Controller.M.L1_Replacement::total        73503                       (Unspecified)
system.caches.L1Cache_Controller.M.Fwd_GETX |           7     11.11%     11.11% |          12     19.05%     30.16% |          10     15.87%     46.03% |          10     15.87%     61.90% |           5      7.94%     69.84% |           5      7.94%     77.78% |           9     14.29%     92.06% |           5      7.94%    100.00% (Unspecified)
system.caches.L1Cache_Controller.M.Fwd_GETX::total           63                       (Unspecified)
system.caches.L1Cache_Controller.M.Fwd_GETS |        2261     13.86%     13.86% |        2012     12.33%     26.19% |        1991     12.20%     38.39% |        1935     11.86%     50.25% |        2062     12.64%     62.89% |        1911     11.71%     74.60% |        2052     12.58%     87.17% |        2093     12.83%    100.00% (Unspecified)
system.caches.L1Cache_Controller.M.Fwd_GETS::total        16317                       (Unspecified)
system.caches.L1Cache_Controller.IS.Inv  |           0      0.00%      0.00% |           6      8.33%      8.33% |          30     41.67%     50.00% |          18     25.00%     75.00% |          10     13.89%     88.89% |           4      5.56%     94.44% |           2      2.78%     97.22% |           2      2.78%    100.00% (Unspecified)
system.caches.L1Cache_Controller.IS.Inv::total           72                       (Unspecified)
system.caches.L1Cache_Controller.IS.Data_Exclusive |      724214     12.72%     12.72% |      709502     12.46%     25.17% |      708074     12.43%     37.60% |      713850     12.53%     50.14% |      711359     12.49%     62.63% |      718958     12.62%     75.25% |      712349     12.51%     87.76% |      697241     12.24%    100.00% (Unspecified)
system.caches.L1Cache_Controller.IS.Data_Exclusive::total      5695547                       (Unspecified)
system.caches.L1Cache_Controller.IS.DataS_fromL1 |        2781     12.18%     12.18% |        3111     13.62%     25.80% |        3113     13.63%     39.43% |        3045     13.33%     52.76% |        2680     11.73%     64.49% |        2822     12.36%     76.85% |        2630     11.51%     88.36% |        2658     11.64%    100.00% (Unspecified)
system.caches.L1Cache_Controller.IS.DataS_fromL1::total        22840                       (Unspecified)
system.caches.L1Cache_Controller.IS.Data_all_Acks |     2461406     12.72%     12.72% |     2408742     12.45%     25.16% |     2406408     12.43%     37.60% |     2425756     12.53%     50.13% |     2416851     12.49%     62.62% |     2442381     12.62%     75.24% |     2421808     12.51%     87.75% |     2370104     12.25%    100.00% (Unspecified)
system.caches.L1Cache_Controller.IS.Data_all_Acks::total     19353456                       (Unspecified)
system.caches.L1Cache_Controller.IM.Data |          60     80.00%     80.00% |           3      4.00%     84.00% |           2      2.67%     86.67% |           2      2.67%     89.33% |           2      2.67%     92.00% |           2      2.67%     94.67% |           3      4.00%     98.67% |           1      1.33%    100.00% (Unspecified)
system.caches.L1Cache_Controller.IM.Data::total           75                       (Unspecified)
system.caches.L1Cache_Controller.IM.Data_all_Acks |        3165     14.20%     14.20% |        2768     12.42%     26.61% |        2749     12.33%     38.94% |        2756     12.36%     51.30% |        2697     12.10%     63.40% |        2705     12.13%     75.53% |        2741     12.29%     87.83% |        2714     12.17%    100.00% (Unspecified)
system.caches.L1Cache_Controller.IM.Data_all_Acks::total        22295                       (Unspecified)
system.caches.L1Cache_Controller.SM.Ack  |       16629     13.17%     13.17% |       15340     12.15%     25.32% |       16067     12.73%     38.05% |       15851     12.56%     50.61% |       15254     12.08%     62.69% |       16002     12.68%     75.37% |       15759     12.48%     87.85% |       15338     12.15%    100.00% (Unspecified)
system.caches.L1Cache_Controller.SM.Ack::total       126240                       (Unspecified)
system.caches.L1Cache_Controller.SM.Ack_all |        2540     13.89%     13.89% |        2208     12.07%     25.96% |        2311     12.63%     38.59% |        2281     12.47%     51.06% |        2187     11.96%     63.02% |        2295     12.55%     75.56% |        2268     12.40%     87.96% |        2202     12.04%    100.00% (Unspecified)
system.caches.L1Cache_Controller.SM.Ack_all::total        18292                       (Unspecified)
system.caches.L1Cache_Controller.IS_I.Data_all_Acks |           0      0.00%      0.00% |           6      8.33%      8.33% |          30     41.67%     50.00% |          18     25.00%     75.00% |          10     13.89%     88.89% |           4      5.56%     94.44% |           2      2.78%     97.22% |           2      2.78%    100.00% (Unspecified)
system.caches.L1Cache_Controller.IS_I.Data_all_Acks::total           72                       (Unspecified)
system.caches.L1Cache_Controller.M_I.Store |           0      0.00%      0.00% |           0      0.00%      0.00% |           0      0.00%      0.00% |           0      0.00%      0.00% |           0      0.00%      0.00% |           0      0.00%      0.00% |           1    100.00%    100.00% |           0      0.00%    100.00% (Unspecified)
system.caches.L1Cache_Controller.M_I.Store::total            1                       (Unspecified)
system.caches.L1Cache_Controller.M_I.Inv |           1     50.00%     50.00% |           0      0.00%     50.00% |           0      0.00%     50.00% |           0      0.00%     50.00% |           0      0.00%     50.00% |           0      0.00%     50.00% |           1     50.00%    100.00% |           0      0.00%    100.00% (Unspecified)
system.caches.L1Cache_Controller.M_I.Inv::total            2                       (Unspecified)
system.caches.L1Cache_Controller.M_I.WB_Ack |      732918     12.82%     12.82% |      711433     12.45%     25.27% |      709842     12.42%     37.69% |      715927     12.52%     50.21% |      713120     12.48%     62.69% |      720839     12.61%     75.30% |      714206     12.49%     87.79% |      697753     12.21%    100.00% (Unspecified)
system.caches.L1Cache_Controller.M_I.WB_Ack::total      5716038                       (Unspecified)
system.caches.L1Cache_Controller.SINK_WB_ACK.WB_Ack |           1     50.00%     50.00% |           0      0.00%     50.00% |           0      0.00%     50.00% |           0      0.00%     50.00% |           0      0.00%     50.00% |           0      0.00%     50.00% |           1     50.00%    100.00% |           0      0.00%    100.00% (Unspecified)
system.caches.L1Cache_Controller.SINK_WB_ACK.WB_Ack::total            2                       (Unspecified)
system.caches.Directory_Controller.Fetch |        7508      0.13%      0.13% |     5696308     99.87%    100.00% (Unspecified)
system.caches.Directory_Controller.Fetch::total      5703816                       (Unspecified)
system.caches.Directory_Controller.Data  |         458      0.30%      0.30% |      153812     99.70%    100.00% (Unspecified)
system.caches.Directory_Controller.Data::total       154270                       (Unspecified)
system.caches.Directory_Controller.Memory_Data |        7508      0.13%      0.13% |     5696291     99.87%    100.00% (Unspecified)
system.caches.Directory_Controller.Memory_Data::total      5703799                       (Unspecified)
system.caches.Directory_Controller.Memory_Ack |         458      0.30%      0.30% |      153812     99.70%    100.00% (Unspecified)
system.caches.Directory_Controller.Memory_Ack::total       154270                       (Unspecified)
system.caches.Directory_Controller.CleanReplacement |        7018      0.13%      0.13% |     5542528     99.87%    100.00% (Unspecified)
system.caches.Directory_Controller.CleanReplacement::total      5549546                       (Unspecified)
system.caches.Directory_Controller.I.Fetch |        7508      0.13%      0.13% |     5696308     99.87%    100.00% (Unspecified)
system.caches.Directory_Controller.I.Fetch::total      5703816                       (Unspecified)
system.caches.Directory_Controller.M.Data |         458      0.30%      0.30% |      153812     99.70%    100.00% (Unspecified)
system.caches.Directory_Controller.M.Data::total       154270                       (Unspecified)
system.caches.Directory_Controller.M.CleanReplacement |        7018      0.13%      0.13% |     5542528     99.87%    100.00% (Unspecified)
system.caches.Directory_Controller.M.CleanReplacement::total      5549546                       (Unspecified)
system.caches.Directory_Controller.IM.Memory_Data |        7508      0.13%      0.13% |     5696291     99.87%    100.00% (Unspecified)
system.caches.Directory_Controller.IM.Memory_Data::total      5703799                       (Unspecified)
system.caches.Directory_Controller.MI.Memory_Ack |         458      0.30%      0.30% |      153812     99.70%    100.00% (Unspecified)
system.caches.Directory_Controller.MI.Memory_Ack::total       154270                       (Unspecified)
system.caches.L2Cache_Controller.L1_GET_INSTR |        5045     13.07%     13.07% |        5148     13.33%     26.40% |        4795     12.42%     38.81% |        3484      9.02%     47.84% |        5068     13.12%     60.96% |        4852     12.57%     73.53% |        4965     12.86%     86.39% |        5257     13.61%    100.00% (Unspecified)
system.caches.L2Cache_Controller.L1_GET_INSTR::total        38614                       (Unspecified)
system.caches.L2Cache_Controller.L1_GETS |     3133542     12.52%     12.52% |     3133993     12.52%     25.04% |     3126691     12.49%     37.53% |     3128358     12.50%     50.02% |     3134437     12.52%     62.54% |     3129201     12.50%     75.04% |     3123990     12.48%     87.52% |     3124324     12.48%    100.00% (Unspecified)
system.caches.L2Cache_Controller.L1_GETS::total     25034536                       (Unspecified)
system.caches.L2Cache_Controller.L1_GETX |        3084     13.77%     13.77% |        2739     12.23%     26.00% |        2128      9.50%     35.50% |        2584     11.54%     47.04% |        2737     12.22%     59.26% |        3317     14.81%     74.07% |        2791     12.46%     86.53% |        3017     13.47%    100.00% (Unspecified)
system.caches.L2Cache_Controller.L1_GETX::total        22397                       (Unspecified)
system.caches.L2Cache_Controller.L1_UPGRADE |        2245     12.29%     12.29% |        2258     12.36%     24.66% |        2240     12.27%     36.92% |        2255     12.35%     49.27% |        2275     12.46%     61.73% |        2257     12.36%     74.08% |        2464     13.49%     87.58% |        2269     12.42%    100.00% (Unspecified)
system.caches.L2Cache_Controller.L1_UPGRADE::total        18263                       (Unspecified)
system.caches.L2Cache_Controller.L1_PUTX |      714805     12.51%     12.51% |      714843     12.51%     25.01% |      713353     12.48%     37.49% |      714302     12.50%     49.99% |      714316     12.50%     62.48% |      715313     12.51%     75.00% |      714418     12.50%     87.50% |      714691     12.50%    100.00% (Unspecified)
system.caches.L2Cache_Controller.L1_PUTX::total      5716041                       (Unspecified)
system.caches.L2Cache_Controller.L1_PUTX_old |           0      0.00%      0.00% |           0      0.00%      0.00% |           0      0.00%      0.00% |           0      0.00%      0.00% |           0      0.00%      0.00% |           2     50.00%     50.00% |           2     50.00%    100.00% |           0      0.00%    100.00% (Unspecified)
system.caches.L2Cache_Controller.L1_PUTX_old::total            4                       (Unspecified)
system.caches.L2Cache_Controller.L2_Replacement |       19347     12.55%     12.55% |       19114     12.40%     24.96% |       18738     12.16%     37.12% |       19182     12.45%     49.57% |       19132     12.42%     61.98% |       19750     12.82%     74.80% |       19271     12.51%     87.30% |       19566     12.70%    100.00% (Unspecified)
system.caches.L2Cache_Controller.L2_Replacement::total       154100                       (Unspecified)
system.caches.L2Cache_Controller.L2_Replacement_clean |      694011     12.51%     12.51% |      694175     12.51%     25.01% |      693538     12.50%     37.51% |      693426     12.49%     50.01% |      693782     12.50%     62.51% |      693673     12.50%     75.01% |      693473     12.50%     87.50% |      693638     12.50%    100.00% (Unspecified)
system.caches.L2Cache_Controller.L2_Replacement_clean::total      5549716                       (Unspecified)
system.caches.L2Cache_Controller.Mem_Data |      713355     12.51%     12.51% |      713288     12.51%     25.01% |      712275     12.49%     37.50% |      712607     12.49%     49.99% |      712912     12.50%     62.49% |      713421     12.51%     75.00% |      712740     12.50%     87.50% |      713200     12.50%    100.00% (Unspecified)
system.caches.L2Cache_Controller.Mem_Data::total      5703798                       (Unspecified)
system.caches.L2Cache_Controller.Mem_Ack |      713358     12.51%     12.51% |      713289     12.51%     25.01% |      712276     12.49%     37.50% |      712608     12.49%     49.99% |      712914     12.50%     62.49% |      713423     12.51%     75.00% |      712744     12.50%     87.50% |      713204     12.50%    100.00% (Unspecified)
system.caches.L2Cache_Controller.Mem_Ack::total      5703816                       (Unspecified)
system.caches.L2Cache_Controller.WB_Data |        2087     12.64%     12.64% |        2013     12.19%     24.83% |        2018     12.22%     37.06% |        2022     12.25%     49.31% |        2091     12.67%     61.97% |        2036     12.33%     74.30% |        2206     13.36%     87.67% |        2036     12.33%    100.00% (Unspecified)
system.caches.L2Cache_Controller.WB_Data::total        16509                       (Unspecified)
system.caches.L2Cache_Controller.WB_Data_clean |         884     13.55%     13.55% |         868     13.30%     26.85% |         800     12.26%     39.11% |         799     12.25%     51.36% |         769     11.79%     63.14% |         777     11.91%     75.05% |         815     12.49%     87.54% |         813     12.46%    100.00% (Unspecified)
system.caches.L2Cache_Controller.WB_Data_clean::total         6525                       (Unspecified)
system.caches.L2Cache_Controller.Ack     |        8113     14.80%     14.80% |        7353     13.42%     28.22% |        7196     13.13%     41.35% |        5415      9.88%     51.23% |        6870     12.54%     63.77% |        6204     11.32%     75.09% |        6423     11.72%     86.81% |        7230     13.19%    100.00% (Unspecified)
system.caches.L2Cache_Controller.Ack::total        54804                       (Unspecified)
system.caches.L2Cache_Controller.Ack_all |        1974     13.78%     13.78% |        1898     13.25%     27.03% |        1839     12.84%     39.87% |        1558     10.88%     50.75% |        1815     12.67%     63.42% |        1684     11.76%     75.18% |        1698     11.86%     87.03% |        1857     12.97%    100.00% (Unspecified)
system.caches.L2Cache_Controller.Ack_all::total        14323                       (Unspecified)
system.caches.L2Cache_Controller.Unblock |        2937     12.86%     12.86% |        2861     12.53%     25.39% |        2801     12.26%     37.65% |        2802     12.27%     49.92% |        2839     12.43%     62.35% |        2781     12.18%     74.52% |        3003     13.15%     87.67% |        2816     12.33%    100.00% (Unspecified)
system.caches.L2Cache_Controller.Unblock::total        22840                       (Unspecified)
system.caches.L2Cache_Controller.Exclusive_Unblock |      717448     12.51%     12.51% |      717331     12.51%     25.01% |      715790     12.48%     37.49% |      716717     12.49%     49.99% |      716826     12.50%     62.48% |      717783     12.51%     75.00% |      717062     12.50%     87.50% |      717177     12.50%    100.00% (Unspecified)
system.caches.L2Cache_Controller.Exclusive_Unblock::total      5736134                       (Unspecified)
system.caches.L2Cache_Controller.NP.L1_GET_INSTR |         865     13.09%     13.09% |         894     13.53%     26.62% |         848     12.83%     39.45% |         653      9.88%     49.33% |         862     13.04%     62.37% |         769     11.64%     74.01% |         798     12.07%     86.08% |         920     13.92%    100.00% (Unspecified)
system.caches.L2Cache_Controller.NP.L1_GET_INSTR::total         6609                       (Unspecified)
system.caches.L2Cache_Controller.NP.L1_GETS |      709895     12.50%     12.50% |      709939     12.50%     25.01% |      709363     12.49%     37.50% |      709595     12.50%     50.00% |      709613     12.50%     62.50% |      709805     12.50%     75.00% |      709477     12.50%     87.50% |      709638     12.50%    100.00% (Unspecified)
system.caches.L2Cache_Controller.NP.L1_GETS::total      5677325                       (Unspecified)
system.caches.L2Cache_Controller.NP.L1_GETX |        2598     13.07%     13.07% |        2456     12.35%     25.42% |        2065     10.39%     35.81% |        2360     11.87%     47.68% |        2439     12.27%     59.94% |        2849     14.33%     74.27% |        2469     12.42%     86.69% |        2646     13.31%    100.00% (Unspecified)
system.caches.L2Cache_Controller.NP.L1_GETX::total        19882                       (Unspecified)
system.caches.L2Cache_Controller.NP.L1_PUTX_old |           0      0.00%      0.00% |           0      0.00%      0.00% |           0      0.00%      0.00% |           0      0.00%      0.00% |           0      0.00%      0.00% |           1     50.00%     50.00% |           1     50.00%    100.00% |           0      0.00%    100.00% (Unspecified)
system.caches.L2Cache_Controller.NP.L1_PUTX_old::total            2                       (Unspecified)
system.caches.L2Cache_Controller.SS.L1_GET_INSTR |        2614     13.35%     13.35% |        2560     13.07%     26.42% |        2403     12.27%     38.69% |        1681      8.58%     47.27% |        2544     12.99%     60.26% |        2324     11.87%     72.12% |        2564     13.09%     85.21% |        2896     14.79%    100.00% (Unspecified)
system.caches.L2Cache_Controller.SS.L1_GET_INSTR::total        19586                       (Unspecified)
system.caches.L2Cache_Controller.SS.L1_GETS |     2417460     12.52%     12.52% |     2418165     12.52%     25.04% |     2411847     12.49%     37.53% |     2413316     12.50%     50.03% |     2419449     12.53%     62.55% |     2413838     12.50%     75.05% |     2408399     12.47%     87.52% |     2409226     12.48%    100.00% (Unspecified)
system.caches.L2Cache_Controller.SS.L1_GETS::total     19311700                       (Unspecified)
system.caches.L2Cache_Controller.SS.L1_GETX |          40     53.33%     53.33% |           0      0.00%     53.33% |           0      0.00%     53.33% |           0      0.00%     53.33% |           5      6.67%     60.00% |           3      4.00%     64.00% |          23     30.67%     94.67% |           4      5.33%    100.00% (Unspecified)
system.caches.L2Cache_Controller.SS.L1_GETX::total           75                       (Unspecified)
system.caches.L2Cache_Controller.SS.L1_UPGRADE |        2245     12.32%     12.32% |        2258     12.40%     24.72% |        2240     12.30%     37.01% |        2255     12.38%     49.39% |        2275     12.49%     61.88% |        2257     12.39%     74.27% |        2418     13.27%     87.54% |        2269     12.46%    100.00% (Unspecified)
system.caches.L2Cache_Controller.SS.L1_UPGRADE::total        18217                       (Unspecified)
system.caches.L2Cache_Controller.SS.L2_Replacement |          51     23.83%     23.83% |          40     18.69%     42.52% |          12      5.61%     48.13% |          17      7.94%     56.07% |          22     10.28%     66.36% |          13      6.07%     72.43% |          38     17.76%     90.19% |          21      9.81%    100.00% (Unspecified)
system.caches.L2Cache_Controller.SS.L2_Replacement::total          214                       (Unspecified)
system.caches.L2Cache_Controller.SS.L2_Replacement_clean |        1487     14.11%     14.11% |        1424     13.51%     27.62% |        1391     13.20%     40.82% |        1098     10.42%     51.24% |        1332     12.64%     63.88% |        1201     11.40%     75.28% |        1193     11.32%     86.60% |        1412     13.40%    100.00% (Unspecified)
system.caches.L2Cache_Controller.SS.L2_Replacement_clean::total        10538                       (Unspecified)
system.caches.L2Cache_Controller.M.L1_GET_INSTR |           0      0.00%      0.00% |           2     25.00%     25.00% |           1     12.50%     37.50% |           0      0.00%     37.50% |           0      0.00%     37.50% |           1     12.50%     50.00% |           2     25.00%     75.00% |           2     25.00%    100.00% (Unspecified)
system.caches.L2Cache_Controller.M.L1_GET_INSTR::total            8                       (Unspecified)
system.caches.L2Cache_Controller.M.L1_GETS |        2435     12.76%     12.76% |        2526     13.24%     26.00% |        2215     11.61%     37.60% |        2357     12.35%     49.96% |        2290     12.00%     61.96% |        2480     13.00%     74.95% |        2400     12.58%     87.53% |        2380     12.47%    100.00% (Unspecified)
system.caches.L2Cache_Controller.M.L1_GETS::total        19083                       (Unspecified)
system.caches.L2Cache_Controller.M.L1_GETX |         384     16.47%     16.47% |         268     11.50%     27.97% |          60      2.57%     30.54% |         223      9.57%     40.11% |         284     12.18%     52.30% |         454     19.48%     71.77% |         294     12.61%     84.38% |         364     15.62%    100.00% (Unspecified)
system.caches.L2Cache_Controller.M.L1_GETX::total         2331                       (Unspecified)
system.caches.L2Cache_Controller.M.L2_Replacement |       19290     12.54%     12.54% |       19071     12.40%     24.93% |       18724     12.17%     37.10% |       19161     12.45%     49.56% |       19106     12.42%     61.98% |       19729     12.82%     74.80% |       19231     12.50%     87.30% |       19540     12.70%    100.00% (Unspecified)
system.caches.L2Cache_Controller.M.L2_Replacement::total       153852                       (Unspecified)
system.caches.L2Cache_Controller.M.L2_Replacement_clean |      692060     12.50%     12.50% |      692300     12.51%     25.01% |      691696     12.50%     37.50% |      691870     12.50%     50.00% |      691972     12.50%     62.50% |      691978     12.50%     75.01% |      691797     12.50%     87.50% |      691774     12.50%    100.00% (Unspecified)
system.caches.L2Cache_Controller.M.L2_Replacement_clean::total      5535447                       (Unspecified)
system.caches.L2Cache_Controller.MT.L1_GETS |        2937     12.86%     12.86% |        2861     12.53%     25.39% |        2801     12.26%     37.65% |        2802     12.27%     49.92% |        2839     12.43%     62.35% |        2781     12.18%     74.52% |        3003     13.15%     87.67% |        2816     12.33%    100.00% (Unspecified)
system.caches.L2Cache_Controller.MT.L1_GETS::total        22840                       (Unspecified)
system.caches.L2Cache_Controller.MT.L1_GETX |          42     51.22%     51.22% |          10     12.20%     63.41% |           3      3.66%     67.07% |           1      1.22%     68.29% |           8      9.76%     78.05% |          10     12.20%     90.24% |           5      6.10%     96.34% |           3      3.66%    100.00% (Unspecified)
system.caches.L2Cache_Controller.MT.L1_GETX::total           82                       (Unspecified)
system.caches.L2Cache_Controller.MT.L1_PUTX |      714805     12.51%     12.51% |      714843     12.51%     25.01% |      713353     12.48%     37.49% |      714302     12.50%     49.99% |      714316     12.50%     62.48% |      715313     12.51%     75.00% |      714418     12.50%     87.50% |      714691     12.50%    100.00% (Unspecified)
system.caches.L2Cache_Controller.MT.L1_PUTX::total      5716041                       (Unspecified)
system.caches.L2Cache_Controller.MT.L2_Replacement |           6     17.65%     17.65% |           3      8.82%     26.47% |           2      5.88%     32.35% |           4     11.76%     44.12% |           4     11.76%     55.88% |           8     23.53%     79.41% |           2      5.88%     85.29% |           5     14.71%    100.00% (Unspecified)
system.caches.L2Cache_Controller.MT.L2_Replacement::total           34                       (Unspecified)
system.caches.L2Cache_Controller.MT.L2_Replacement_clean |         464     12.44%     12.44% |         451     12.09%     24.52% |         451     12.09%     36.61% |         458     12.28%     48.89% |         478     12.81%     61.70% |         494     13.24%     74.94% |         483     12.95%     87.89% |         452     12.11%    100.00% (Unspecified)
system.caches.L2Cache_Controller.MT.L2_Replacement_clean::total         3731                       (Unspecified)
system.caches.L2Cache_Controller.M_I.L1_GETS |           3     18.75%     18.75% |           3     18.75%     37.50% |           2     12.50%     50.00% |           1      6.25%     56.25% |           3     18.75%     75.00% |           1      6.25%     81.25% |           1      6.25%     87.50% |           2     12.50%    100.00% (Unspecified)
system.caches.L2Cache_Controller.M_I.L1_GETS::total           16                       (Unspecified)
system.caches.L2Cache_Controller.M_I.L1_GETX |           1     20.00%     20.00% |           2     40.00%     60.00% |           0      0.00%     60.00% |           0      0.00%     60.00% |           1     20.00%     80.00% |           1     20.00%    100.00% |           0      0.00%    100.00% |           0      0.00%    100.00% (Unspecified)
system.caches.L2Cache_Controller.M_I.L1_GETX::total            5                       (Unspecified)
system.caches.L2Cache_Controller.M_I.Mem_Ack |      713358     12.51%     12.51% |      713289     12.51%     25.01% |      712276     12.49%     37.50% |      712608     12.49%     49.99% |      712914     12.50%     62.49% |      713423     12.51%     75.00% |      712744     12.50%     87.50% |      713204     12.50%    100.00% (Unspecified)
system.caches.L2Cache_Controller.M_I.Mem_Ack::total      5703816                       (Unspecified)
system.caches.L2Cache_Controller.MT_I.WB_Data |           5     22.73%     22.73% |           2      9.09%     31.82% |           0      0.00%     31.82% |           1      4.55%     36.36% |           3     13.64%     50.00% |           7     31.82%     81.82% |           0      0.00%     81.82% |           4     18.18%    100.00% (Unspecified)
system.caches.L2Cache_Controller.MT_I.WB_Data::total           22                       (Unspecified)
system.caches.L2Cache_Controller.MT_I.Ack_all |           1      8.33%      8.33% |           1      8.33%     16.67% |           2     16.67%     33.33% |           3     25.00%     58.33% |           1      8.33%     66.67% |           1      8.33%     75.00% |           2     16.67%     91.67% |           1      8.33%    100.00% (Unspecified)
system.caches.L2Cache_Controller.MT_I.Ack_all::total           12                       (Unspecified)
system.caches.L2Cache_Controller.MCT_I.L1_PUTX_old |           0      0.00%      0.00% |           0      0.00%      0.00% |           0      0.00%      0.00% |           0      0.00%      0.00% |           0      0.00%      0.00% |           1     50.00%     50.00% |           1     50.00%    100.00% |           0      0.00%    100.00% (Unspecified)
system.caches.L2Cache_Controller.MCT_I.L1_PUTX_old::total            2                       (Unspecified)
system.caches.L2Cache_Controller.MCT_I.WB_Data |          29     17.06%     17.06% |          18     10.59%     27.65% |          17     10.00%     37.65% |          18     10.59%     48.24% |          18     10.59%     58.82% |          24     14.12%     72.94% |          17     10.00%     82.94% |          29     17.06%    100.00% (Unspecified)
system.caches.L2Cache_Controller.MCT_I.WB_Data::total          170                       (Unspecified)
system.caches.L2Cache_Controller.MCT_I.WB_Data_clean |           0      0.00%      0.00% |           0      0.00%      0.00% |           0      0.00%      0.00% |           0      0.00%      0.00% |           0      0.00%      0.00% |           1     50.00%     50.00% |           1     50.00%    100.00% |           0      0.00%    100.00% (Unspecified)
system.caches.L2Cache_Controller.MCT_I.WB_Data_clean::total            2                       (Unspecified)
system.caches.L2Cache_Controller.MCT_I.Ack_all |         435     12.22%     12.22% |         433     12.17%     24.39% |         434     12.19%     36.58% |         440     12.36%     48.95% |         460     12.92%     61.87% |         469     13.18%     75.05% |         465     13.07%     88.11% |         423     11.89%    100.00% (Unspecified)
system.caches.L2Cache_Controller.MCT_I.Ack_all::total         3559                       (Unspecified)
system.caches.L2Cache_Controller.I_I.Ack |        7802     14.58%     14.58% |        7103     13.27%     27.85% |        7118     13.30%     41.15% |        5314      9.93%     51.08% |        6753     12.62%     63.70% |        6119     11.43%     75.13% |        6199     11.58%     86.71% |        7111     13.29%    100.00% (Unspecified)
system.caches.L2Cache_Controller.I_I.Ack::total        53519                       (Unspecified)
system.caches.L2Cache_Controller.I_I.Ack_all |        1487     14.11%     14.11% |        1424     13.51%     27.62% |        1391     13.20%     40.82% |        1098     10.42%     51.24% |        1332     12.64%     63.88% |        1201     11.40%     75.28% |        1193     11.32%     86.60% |        1412     13.40%    100.00% (Unspecified)
system.caches.L2Cache_Controller.I_I.Ack_all::total        10538                       (Unspecified)
system.caches.L2Cache_Controller.S_I.Ack |         311     24.20%     24.20% |         250     19.46%     43.66% |          78      6.07%     49.73% |         101      7.86%     57.59% |         117      9.11%     66.69% |          85      6.61%     73.31% |         224     17.43%     90.74% |         119      9.26%    100.00% (Unspecified)
system.caches.L2Cache_Controller.S_I.Ack::total         1285                       (Unspecified)
system.caches.L2Cache_Controller.S_I.Ack_all |          51     23.83%     23.83% |          40     18.69%     42.52% |          12      5.61%     48.13% |          17      7.94%     56.07% |          22     10.28%     66.36% |          13      6.07%     72.43% |          38     17.76%     90.19% |          21      9.81%    100.00% (Unspecified)
system.caches.L2Cache_Controller.S_I.Ack_all::total          214                       (Unspecified)
system.caches.L2Cache_Controller.ISS.L1_GETS |         188     22.30%     22.30% |         125     14.83%     37.13% |         155     18.39%     55.52% |          73      8.66%     64.18% |          86     10.20%     74.38% |          73      8.66%     83.04% |          20      2.37%     85.41% |         123     14.59%    100.00% (Unspecified)
system.caches.L2Cache_Controller.ISS.L1_GETS::total          843                       (Unspecified)
system.caches.L2Cache_Controller.ISS.Mem_Data |      709704     12.50%     12.50% |      709813     12.50%     25.01% |      709207     12.49%     37.50% |      709521     12.50%     50.00% |      709525     12.50%     62.50% |      709730     12.50%     75.00% |      709453     12.50%     87.50% |      709511     12.50%    100.00% (Unspecified)
system.caches.L2Cache_Controller.ISS.Mem_Data::total      5676464                       (Unspecified)
system.caches.L2Cache_Controller.IS.L1_GET_INSTR |        1566     12.62%     12.62% |        1692     13.63%     26.25% |        1543     12.43%     38.68% |        1150      9.27%     47.95% |        1662     13.39%     61.34% |        1758     14.16%     75.51% |        1601     12.90%     88.41% |        1439     11.59%    100.00% (Unspecified)
system.caches.L2Cache_Controller.IS.L1_GET_INSTR::total        12411                       (Unspecified)
system.caches.L2Cache_Controller.IS.L1_GETS |         503     32.66%     32.66% |         277     17.99%     50.65% |         233     15.13%     65.78% |         158     10.26%     76.04% |         118      7.66%     83.70% |         196     12.73%     96.43% |          19      1.23%     97.66% |          36      2.34%    100.00% (Unspecified)
system.caches.L2Cache_Controller.IS.L1_GETS::total         1540                       (Unspecified)
system.caches.L2Cache_Controller.IS.Mem_Data |        1053     14.13%     14.13% |        1019     13.67%     27.80% |        1003     13.46%     41.26% |         726      9.74%     51.01% |         948     12.72%     63.73% |         842     11.30%     75.03% |         818     10.98%     86.00% |        1043     14.00%    100.00% (Unspecified)
system.caches.L2Cache_Controller.IS.Mem_Data::total         7452                       (Unspecified)
system.caches.L2Cache_Controller.IM.Mem_Data |        2598     13.07%     13.07% |        2456     12.35%     25.42% |        2065     10.39%     35.81% |        2360     11.87%     47.68% |        2439     12.27%     59.94% |        2849     14.33%     74.27% |        2469     12.42%     86.69% |        2646     13.31%    100.00% (Unspecified)
system.caches.L2Cache_Controller.IM.Mem_Data::total        19882                       (Unspecified)
system.caches.L2Cache_Controller.SS_MB.L1_GETS |           0      0.00%      0.00% |           0      0.00%      0.00% |           0      0.00%      0.00% |           0      0.00%      0.00% |           0      0.00%      0.00% |           0      0.00%      0.00% |         372     92.54%     92.54% |          30      7.46%    100.00% (Unspecified)
system.caches.L2Cache_Controller.SS_MB.L1_GETS::total          402                       (Unspecified)
system.caches.L2Cache_Controller.SS_MB.Exclusive_Unblock |        2285     12.49%     12.49% |        2258     12.34%     24.84% |        2240     12.25%     37.08% |        2255     12.33%     49.41% |        2280     12.46%     61.87% |        2260     12.36%     74.23% |        2441     13.34%     87.57% |        2273     12.43%    100.00% (Unspecified)
system.caches.L2Cache_Controller.SS_MB.Exclusive_Unblock::total        18292                       (Unspecified)
system.caches.L2Cache_Controller.MT_MB.L1_GETS |          26     21.31%     21.31% |          20     16.39%     37.70% |          27     22.13%     59.84% |          25     20.49%     80.33% |           8      6.56%     86.89% |           7      5.74%     92.62% |           0      0.00%     92.62% |           9      7.38%    100.00% (Unspecified)
system.caches.L2Cache_Controller.MT_MB.L1_GETS::total          122                       (Unspecified)
system.caches.L2Cache_Controller.MT_MB.L1_GETX |          19     86.36%     86.36% |           3     13.64%    100.00% |           0      0.00%    100.00% |           0      0.00%    100.00% |           0      0.00%    100.00% |           0      0.00%    100.00% |           0      0.00%    100.00% |           0      0.00%    100.00% (Unspecified)
system.caches.L2Cache_Controller.MT_MB.L1_GETX::total           22                       (Unspecified)
system.caches.L2Cache_Controller.MT_MB.Exclusive_Unblock |      715163     12.51%     12.51% |      715073     12.51%     25.01% |      713550     12.48%     37.49% |      714462     12.50%     49.99% |      714546     12.50%     62.49% |      715523     12.51%     75.00% |      714621     12.50%     87.50% |      714904     12.50%    100.00% (Unspecified)
system.caches.L2Cache_Controller.MT_MB.Exclusive_Unblock::total      5717842                       (Unspecified)
system.caches.L2Cache_Controller.MT_IIB.L1_GETS |          76     12.97%     12.97% |          58      9.90%     22.87% |          39      6.66%     29.52% |          28      4.78%     34.30% |          28      4.78%     39.08% |          18      3.07%     42.15% |         294     50.17%     92.32% |          45      7.68%    100.00% (Unspecified)
system.caches.L2Cache_Controller.MT_IIB.L1_GETS::total          586                       (Unspecified)
system.caches.L2Cache_Controller.MT_IIB.WB_Data |        2048     12.57%     12.57% |        1991     12.22%     24.79% |        1999     12.27%     37.06% |        2002     12.29%     49.35% |        2066     12.68%     62.03% |        2003     12.29%     74.32% |        2185     13.41%     87.73% |        1999     12.27%    100.00% (Unspecified)
system.caches.L2Cache_Controller.MT_IIB.WB_Data::total        16293                       (Unspecified)
system.caches.L2Cache_Controller.MT_IIB.WB_Data_clean |         884     13.55%     13.55% |         868     13.31%     26.86% |         800     12.26%     39.12% |         799     12.25%     51.37% |         769     11.79%     63.16% |         776     11.90%     75.06% |         814     12.48%     87.54% |         813     12.46%    100.00% (Unspecified)
system.caches.L2Cache_Controller.MT_IIB.WB_Data_clean::total         6523                       (Unspecified)
system.caches.L2Cache_Controller.MT_IIB.Unblock |           5     20.83%     20.83% |           2      8.33%     29.17% |           2      8.33%     37.50% |           1      4.17%     41.67% |           4     16.67%     58.33% |           2      8.33%     66.67% |           4     16.67%     83.33% |           4     16.67%    100.00% (Unspecified)
system.caches.L2Cache_Controller.MT_IIB.Unblock::total           24                       (Unspecified)
system.caches.L2Cache_Controller.MT_IB.WB_Data |           5     20.83%     20.83% |           2      8.33%     29.17% |           2      8.33%     37.50% |           1      4.17%     41.67% |           4     16.67%     58.33% |           2      8.33%     66.67% |           4     16.67%     83.33% |           4     16.67%    100.00% (Unspecified)
system.caches.L2Cache_Controller.MT_IB.WB_Data::total           24                       (Unspecified)
system.caches.L2Cache_Controller.MT_SB.L1_GETS |          19     24.05%     24.05% |          19     24.05%     48.10% |           9     11.39%     59.49% |           3      3.80%     63.29% |           3      3.80%     67.09% |           2      2.53%     69.62% |           5      6.33%     75.95% |          19     24.05%    100.00% (Unspecified)
system.caches.L2Cache_Controller.MT_SB.L1_GETS::total           79                       (Unspecified)
system.caches.L2Cache_Controller.MT_SB.L1_UPGRADE |           0      0.00%      0.00% |           0      0.00%      0.00% |           0      0.00%      0.00% |           0      0.00%      0.00% |           0      0.00%      0.00% |           0      0.00%      0.00% |          46    100.00%    100.00% |           0      0.00%    100.00% (Unspecified)
system.caches.L2Cache_Controller.MT_SB.L1_UPGRADE::total           46                       (Unspecified)
system.caches.L2Cache_Controller.MT_SB.Unblock |        2932     12.85%     12.85% |        2859     12.53%     25.38% |        2799     12.27%     37.65% |        2801     12.28%     49.93% |        2835     12.43%     62.35% |        2779     12.18%     74.53% |        2999     13.14%     87.68% |        2812     12.32%    100.00% (Unspecified)
system.caches.L2Cache_Controller.MT_SB.Unblock::total        22816                       (Unspecified)
system.caches.RequestType.LD.latency_hist_seqr::bucket_size          512                       (Unspecified)
system.caches.RequestType.LD.latency_hist_seqr::max_bucket         5119                       (Unspecified)
system.caches.RequestType.LD.latency_hist_seqr::samples     53053653                       (Unspecified)
system.caches.RequestType.LD.latency_hist_seqr::mean    61.847604                       (Unspecified)
system.caches.RequestType.LD.latency_hist_seqr::gmean     6.030430                       (Unspecified)
system.caches.RequestType.LD.latency_hist_seqr::stdev   171.735070                       (Unspecified)
system.caches.RequestType.LD.latency_hist_seqr |    51699020     97.45%     97.45% |     1247631      2.35%     99.80% |       27305      0.05%     99.85% |        8808      0.02%     99.87% |       61689      0.12%     99.98% |        8527      0.02%    100.00% |         570      0.00%    100.00% |          92      0.00%    100.00% |          11      0.00%    100.00% |           0      0.00%    100.00% (Unspecified)
system.caches.RequestType.LD.latency_hist_seqr::total     53053653                       (Unspecified)
system.caches.RequestType.LD.hit_latency_hist_seqr::bucket_size            1                       (Unspecified)
system.caches.RequestType.LD.hit_latency_hist_seqr::max_bucket            9                       (Unspecified)
system.caches.RequestType.LD.hit_latency_hist_seqr::samples     28020352                       (Unspecified)
system.caches.RequestType.LD.hit_latency_hist_seqr::mean     1.117694                       (Unspecified)
system.caches.RequestType.LD.hit_latency_hist_seqr::gmean     1.079814                       (Unspecified)
system.caches.RequestType.LD.hit_latency_hist_seqr::stdev     0.370517                       (Unspecified)
system.caches.RequestType.LD.hit_latency_hist_seqr |           0      0.00%      0.00% |    25187725     89.89%     89.89% |     2370762      8.46%     98.35% |      458539      1.64%     99.99% |        3326      0.01%    100.00% |           0      0.00%    100.00% |           0      0.00%    100.00% |           0      0.00%    100.00% |           0      0.00%    100.00% |           0      0.00%    100.00% (Unspecified)
system.caches.RequestType.LD.hit_latency_hist_seqr::total     28020352                       (Unspecified)
system.caches.RequestType.LD.miss_latency_hist_seqr::bucket_size          512                       (Unspecified)
system.caches.RequestType.LD.miss_latency_hist_seqr::max_bucket         5119                       (Unspecified)
system.caches.RequestType.LD.miss_latency_hist_seqr::samples     25033301                       (Unspecified)
system.caches.RequestType.LD.miss_latency_hist_seqr::mean   129.823996                       (Unspecified)
system.caches.RequestType.LD.miss_latency_hist_seqr::gmean    41.350600                       (Unspecified)
system.caches.RequestType.LD.miss_latency_hist_seqr::stdev   231.853217                       (Unspecified)
system.caches.RequestType.LD.miss_latency_hist_seqr |    23678668     94.59%     94.59% |     1247631      4.98%     99.57% |       27305      0.11%     99.68% |        8808      0.04%     99.72% |       61689      0.25%     99.96% |        8527      0.03%    100.00% |         570      0.00%    100.00% |          92      0.00%    100.00% |          11      0.00%    100.00% |           0      0.00%    100.00% (Unspecified)
system.caches.RequestType.LD.miss_latency_hist_seqr::total     25033301                       (Unspecified)
system.caches.RequestType.ST.latency_hist_seqr::bucket_size          512                       (Unspecified)
system.caches.RequestType.ST.latency_hist_seqr::max_bucket         5119                       (Unspecified)
system.caches.RequestType.ST.latency_hist_seqr::samples       669166                       (Unspecified)
system.caches.RequestType.ST.latency_hist_seqr::mean    15.059201                       (Unspecified)
system.caches.RequestType.ST.latency_hist_seqr::gmean     1.288624                       (Unspecified)
system.caches.RequestType.ST.latency_hist_seqr::stdev    92.393927                       (Unspecified)
system.caches.RequestType.ST.latency_hist_seqr |      663707     99.18%     99.18% |        5004      0.75%     99.93% |         198      0.03%     99.96% |          34      0.01%     99.97% |         186      0.03%     99.99% |          32      0.00%    100.00% |           5      0.00%    100.00% |           0      0.00%    100.00% |           0      0.00%    100.00% |           0      0.00%    100.00% (Unspecified)
system.caches.RequestType.ST.latency_hist_seqr::total       669166                       (Unspecified)
system.caches.RequestType.ST.hit_latency_hist_seqr::bucket_size          256                       (Unspecified)
system.caches.RequestType.ST.hit_latency_hist_seqr::max_bucket         2559                       (Unspecified)
system.caches.RequestType.ST.hit_latency_hist_seqr::samples       632047                       (Unspecified)
system.caches.RequestType.ST.hit_latency_hist_seqr::mean     1.070327                       (Unspecified)
system.caches.RequestType.ST.hit_latency_hist_seqr::gmean     1.002598                       (Unspecified)
system.caches.RequestType.ST.hit_latency_hist_seqr::stdev     8.902611                       (Unspecified)
system.caches.RequestType.ST.hit_latency_hist_seqr |      632006     99.99%     99.99% |          12      0.00%    100.00% |           5      0.00%    100.00% |           2      0.00%    100.00% |           9      0.00%    100.00% |           6      0.00%    100.00% |           4      0.00%    100.00% |           2      0.00%    100.00% |           1      0.00%    100.00% |           0      0.00%    100.00% (Unspecified)
system.caches.RequestType.ST.hit_latency_hist_seqr::total       632047                       (Unspecified)
system.caches.RequestType.ST.miss_latency_hist_seqr::bucket_size          512                       (Unspecified)
system.caches.RequestType.ST.miss_latency_hist_seqr::max_bucket         5119                       (Unspecified)
system.caches.RequestType.ST.miss_latency_hist_seqr::samples        37119                       (Unspecified)
system.caches.RequestType.ST.miss_latency_hist_seqr::mean   253.255961                       (Unspecified)
system.caches.RequestType.ST.miss_latency_hist_seqr::gmean    92.495332                       (Unspecified)
system.caches.RequestType.ST.miss_latency_hist_seqr::stdev   304.101785                       (Unspecified)
system.caches.RequestType.ST.miss_latency_hist_seqr |       31689     85.37%     85.37% |        4997     13.46%     98.83% |         183      0.49%     99.33% |          28      0.08%     99.40% |         185      0.50%     99.90% |          32      0.09%     99.99% |           5      0.01%    100.00% |           0      0.00%    100.00% |           0      0.00%    100.00% |           0      0.00%    100.00% (Unspecified)
system.caches.RequestType.ST.miss_latency_hist_seqr::total        37119                       (Unspecified)
system.caches.RequestType.IFETCH.latency_hist_seqr::bucket_size          256                       (Unspecified)
system.caches.RequestType.IFETCH.latency_hist_seqr::max_bucket         2559                       (Unspecified)
system.caches.RequestType.IFETCH.latency_hist_seqr::samples       779977                       (Unspecified)
system.caches.RequestType.IFETCH.latency_hist_seqr::mean     7.852635                       (Unspecified)
system.caches.RequestType.IFETCH.latency_hist_seqr::gmean     1.225966                       (Unspecified)
system.caches.RequestType.IFETCH.latency_hist_seqr::stdev    46.138897                       (Unspecified)
system.caches.RequestType.IFETCH.latency_hist_seqr |      773414     99.16%     99.16% |        6165      0.79%     99.95% |         230      0.03%     99.98% |          45      0.01%     99.98% |          17      0.00%     99.99% |          54      0.01%     99.99% |          46      0.01%    100.00% |           2      0.00%    100.00% |           3      0.00%    100.00% |           1      0.00%    100.00% (Unspecified)
system.caches.RequestType.IFETCH.latency_hist_seqr::total       779977                       (Unspecified)
system.caches.RequestType.IFETCH.hit_latency_hist_seqr::bucket_size            1                       (Unspecified)
system.caches.RequestType.IFETCH.hit_latency_hist_seqr::max_bucket            9                       (Unspecified)
system.caches.RequestType.IFETCH.hit_latency_hist_seqr::samples       741363                       (Unspecified)
system.caches.RequestType.IFETCH.hit_latency_hist_seqr::mean     1.005909                       (Unspecified)
system.caches.RequestType.IFETCH.hit_latency_hist_seqr::gmean     1.004104                       (Unspecified)
system.caches.RequestType.IFETCH.hit_latency_hist_seqr::stdev     0.076645                       (Unspecified)
system.caches.RequestType.IFETCH.hit_latency_hist_seqr |           0      0.00%      0.00% |      736982     99.41%     99.41% |        4381      0.59%    100.00% |           0      0.00%    100.00% |           0      0.00%    100.00% |           0      0.00%    100.00% |           0      0.00%    100.00% |           0      0.00%    100.00% |           0      0.00%    100.00% |           0      0.00%    100.00% (Unspecified)
system.caches.RequestType.IFETCH.hit_latency_hist_seqr::total       741363                       (Unspecified)
system.caches.RequestType.IFETCH.miss_latency_hist_seqr::bucket_size          256                       (Unspecified)
system.caches.RequestType.IFETCH.miss_latency_hist_seqr::max_bucket         2559                       (Unspecified)
system.caches.RequestType.IFETCH.miss_latency_hist_seqr::samples        38614                       (Unspecified)
system.caches.RequestType.IFETCH.miss_latency_hist_seqr::mean   139.305200                       (Unspecified)
system.caches.RequestType.IFETCH.miss_latency_hist_seqr::gmean    56.630216                       (Unspecified)
system.caches.RequestType.IFETCH.miss_latency_hist_seqr::stdev   157.546729                       (Unspecified)
system.caches.RequestType.IFETCH.miss_latency_hist_seqr |       32051     83.00%     83.00% |        6165     15.97%     98.97% |         230      0.60%     99.56% |          45      0.12%     99.68% |          17      0.04%     99.73% |          54      0.14%     99.87% |          46      0.12%     99.98% |           2      0.01%     99.99% |           3      0.01%    100.00% |           1      0.00%    100.00% (Unspecified)
system.caches.RequestType.IFETCH.miss_latency_hist_seqr::total        38614                       (Unspecified)
system.caches.RequestType.RMW_Read.latency_hist_seqr::bucket_size          512                       (Unspecified)
system.caches.RequestType.RMW_Read.latency_hist_seqr::max_bucket         5119                       (Unspecified)
system.caches.RequestType.RMW_Read.latency_hist_seqr::samples         8916                       (Unspecified)
system.caches.RequestType.RMW_Read.latency_hist_seqr::mean   134.762225                       (Unspecified)
system.caches.RequestType.RMW_Read.latency_hist_seqr::gmean     6.345193                       (Unspecified)
system.caches.RequestType.RMW_Read.latency_hist_seqr::stdev   299.740426                       (Unspecified)
system.caches.RequestType.RMW_Read.latency_hist_seqr |        8099     90.84%     90.84% |         585      6.56%     97.40% |         182      2.04%     99.44% |          31      0.35%     99.79% |          14      0.16%     99.94% |           4      0.04%     99.99% |           1      0.01%    100.00% |           0      0.00%    100.00% |           0      0.00%    100.00% |           0      0.00%    100.00% (Unspecified)
system.caches.RequestType.RMW_Read.latency_hist_seqr::total         8916                       (Unspecified)
system.caches.RequestType.RMW_Read.hit_latency_hist_seqr::bucket_size          512                       (Unspecified)
system.caches.RequestType.RMW_Read.hit_latency_hist_seqr::max_bucket         5119                       (Unspecified)
system.caches.RequestType.RMW_Read.hit_latency_hist_seqr::samples         6111                       (Unspecified)
system.caches.RequestType.RMW_Read.hit_latency_hist_seqr::mean    25.048437                       (Unspecified)
system.caches.RequestType.RMW_Read.hit_latency_hist_seqr::gmean     1.551973                       (Unspecified)
system.caches.RequestType.RMW_Read.hit_latency_hist_seqr::stdev   135.931458                       (Unspecified)
system.caches.RequestType.RMW_Read.hit_latency_hist_seqr |        6040     98.84%     98.84% |          54      0.88%     99.72% |           9      0.15%     99.87% |           4      0.07%     99.93% |           3      0.05%     99.98% |           0      0.00%     99.98% |           1      0.02%    100.00% |           0      0.00%    100.00% |           0      0.00%    100.00% |           0      0.00%    100.00% (Unspecified)
system.caches.RequestType.RMW_Read.hit_latency_hist_seqr::total         6111                       (Unspecified)
system.caches.RequestType.RMW_Read.miss_latency_hist_seqr::bucket_size          512                       (Unspecified)
[...]
system.o3Cpu7.iew.predictedTakenIncorrect        15610                       # Number of branches that were predicted taken incorrectly (Count)
system.o3Cpu7.iew.predictedNotTakenIncorrect         1071                       # Number of branches that were predicted not taken incorrectly (Count)
system.o3Cpu7.iew.branchMispredicts             16681                       # Number of branch mispredicts detected at execute (Count)
system.o3Cpu7.iew.instsToCommit              52692979                       # Cumulative count of insts sent to commit (Count)
system.o3Cpu7.iew.writebackCount             52690994                       # Cumulative count of insts written-back (Count)
system.o3Cpu7.iew.producerInst               43145224                       # Number of instructions producing a value (Count)
system.o3Cpu7.iew.consumerInst               62069426                       # Number of instructions consuming a value (Count)
system.o3Cpu7.iew.wbRate                     0.377054                       # Insts written-back per cycle ((Count/Cycle))
system.o3Cpu7.iew.wbFanout                   0.695112                       # Average fanout of values written-back ((Count/Count))
system.o3Cpu7.interrupts.clk_domain.clock         3200                       # Clock period in ticks (Tick)
system.o3Cpu7.lsq0.forwLoads                     3269                       # Number of loads that had data forwarded from stores (Count)
system.o3Cpu7.lsq0.squashedLoads                83425                       # Number of loads squashed (Count)
system.o3Cpu7.lsq0.ignoredResponses                 6                       # Number of memory responses ignored because the instruction is squashed (Count)
system.o3Cpu7.lsq0.memOrderViolation              199                       # Number of memory ordering violations (Count)
system.o3Cpu7.lsq0.squashedStores                2395                       # Number of stores squashed (Count)
system.o3Cpu7.lsq0.rescheduledLoads                35                       # Number of loads that were rescheduled (Count)
system.o3Cpu7.lsq0.blockedByCache              865982                       # Number of times an access to memory failed due to the cache being blocked (Count)
system.o3Cpu7.lsq0.loadToUse::samples        11480783                       # Distribution of cycle latency between the first time a load is issued and its completion (Unspecified)
system.o3Cpu7.lsq0.loadToUse::mean         174.190268                       # Distribution of cycle latency between the first time a load is issued and its completion (Unspecified)
system.o3Cpu7.lsq0.loadToUse::stdev        261.975625                       # Distribution of cycle latency between the first time a load is issued and its completion (Unspecified)
system.o3Cpu7.lsq0.loadToUse::0-9             3445245     30.01%     30.01% # Distribution of cycle latency between the first time a load is issued and its completion (Unspecified)
system.o3Cpu7.lsq0.loadToUse::10-19           1375455     11.98%     41.99% # Distribution of cycle latency between the first time a load is issued and its completion (Unspecified)
system.o3Cpu7.lsq0.loadToUse::20-29           1014955      8.84%     50.83% # Distribution of cycle latency between the first time a load is issued and its completion (Unspecified)
system.o3Cpu7.lsq0.loadToUse::30-39            525892      4.58%     55.41% # Distribution of cycle latency between the first time a load is issued and its completion (Unspecified)
system.o3Cpu7.lsq0.loadToUse::40-49            298459      2.60%     58.01% # Distribution of cycle latency between the first time a load is issued and its completion (Unspecified)
system.o3Cpu7.lsq0.loadToUse::50-59            162205      1.41%     59.42% # Distribution of cycle latency between the first time a load is issued and its completion (Unspecified)
system.o3Cpu7.lsq0.loadToUse::60-69             88669      0.77%     60.20% # Distribution of cycle latency between the first time a load is issued and its completion (Unspecified)
system.o3Cpu7.lsq0.loadToUse::70-79             88132      0.77%     60.96% # Distribution of cycle latency between the first time a load is issued and its completion (Unspecified)
system.o3Cpu7.lsq0.loadToUse::80-89             79888      0.70%     61.66% # Distribution of cycle latency between the first time a load is issued and its completion (Unspecified)
system.o3Cpu7.lsq0.loadToUse::90-99             79930      0.70%     62.35% # Distribution of cycle latency between the first time a load is issued and its completion (Unspecified)
system.o3Cpu7.lsq0.loadToUse::100-109           75251      0.66%     63.01% # Distribution of cycle latency between the first time a load is issued and its completion (Unspecified)
system.o3Cpu7.lsq0.loadToUse::110-119           61782      0.54%     63.55% # Distribution of cycle latency between the first time a load is issued and its completion (Unspecified)
system.o3Cpu7.lsq0.loadToUse::120-129           65440      0.57%     64.12% # Distribution of cycle latency between the first time a load is issued and its completion (Unspecified)
system.o3Cpu7.lsq0.loadToUse::130-139           58473      0.51%     64.63% # Distribution of cycle latency between the first time a load is issued and its completion (Unspecified)
system.o3Cpu7.lsq0.loadToUse::140-149           59482      0.52%     65.15% # Distribution of cycle latency between the first time a load is issued and its completion (Unspecified)
system.o3Cpu7.lsq0.loadToUse::150-159           55287      0.48%     65.63% # Distribution of cycle latency between the first time a load is issued and its completion (Unspecified)
system.o3Cpu7.lsq0.loadToUse::160-169           46562      0.41%     66.03% # Distribution of cycle latency between the first time a load is issued and its completion (Unspecified)
system.o3Cpu7.lsq0.loadToUse::170-179           46595      0.41%     66.44% # Distribution of cycle latency between the first time a load is issued and its completion (Unspecified)
system.o3Cpu7.lsq0.loadToUse::180-189           43947      0.38%     66.82% # Distribution of cycle latency between the first time a load is issued and its completion (Unspecified)
system.o3Cpu7.lsq0.loadToUse::190-199           42096      0.37%     67.19% # Distribution of cycle latency between the first time a load is issued and its completion (Unspecified)
system.o3Cpu7.lsq0.loadToUse::200-209           41412      0.36%     67.55% # Distribution of cycle latency between the first time a load is issued and its completion (Unspecified)
system.o3Cpu7.lsq0.loadToUse::210-219           37173      0.32%     67.87% # Distribution of cycle latency between the first time a load is issued and its completion (Unspecified)
system.o3Cpu7.lsq0.loadToUse::220-229           35774      0.31%     68.18% # Distribution of cycle latency between the first time a load is issued and its completion (Unspecified)
system.o3Cpu7.lsq0.loadToUse::230-239           36047      0.31%     68.50% # Distribution of cycle latency between the first time a load is issued and its completion (Unspecified)
system.o3Cpu7.lsq0.loadToUse::240-249           35572      0.31%     68.81% # Distribution of cycle latency between the first time a load is issued and its completion (Unspecified)
system.o3Cpu7.lsq0.loadToUse::250-259           35618      0.31%     69.12% # Distribution of cycle latency between the first time a load is issued and its completion (Unspecified)
system.o3Cpu7.lsq0.loadToUse::260-269           35481      0.31%     69.43% # Distribution of cycle latency between the first time a load is issued and its completion (Unspecified)
system.o3Cpu7.lsq0.loadToUse::270-279           37147      0.32%     69.75% # Distribution of cycle latency between the first time a load is issued and its completion (Unspecified)
system.o3Cpu7.lsq0.loadToUse::280-289           40480      0.35%     70.10% # Distribution of cycle latency between the first time a load is issued and its completion (Unspecified)
system.o3Cpu7.lsq0.loadToUse::290-299           44639      0.39%     70.49% # Distribution of cycle latency between the first time a load is issued and its completion (Unspecified)
system.o3Cpu7.lsq0.loadToUse::overflows       3387695     29.51%    100.00% # Distribution of cycle latency between the first time a load is issued and its completion (Unspecified)
system.o3Cpu7.lsq0.loadToUse::min_value             2                       # Distribution of cycle latency between the first time a load is issued and its completion (Unspecified)
system.o3Cpu7.lsq0.loadToUse::max_value          4764                       # Distribution of cycle latency between the first time a load is issued and its completion (Unspecified)
system.o3Cpu7.lsq0.loadToUse::total          11480783                       # Distribution of cycle latency between the first time a load is issued and its completion (Unspecified)
system.o3Cpu7.mmu.dtb.rdAccesses             11526562                       # TLB accesses on read requests (Count)
system.o3Cpu7.mmu.dtb.wrAccesses                85700                       # TLB accesses on write requests (Count)
system.o3Cpu7.mmu.dtb.rdMisses                   4437                       # TLB misses on read requests (Count)
system.o3Cpu7.mmu.dtb.wrMisses                    715                       # TLB misses on write requests (Count)
system.o3Cpu7.mmu.dtb.walker.power_state.pwrStateResidencyTicks::UNDEFINED  29513629400                       # Cumulative time (in ticks) in various power states (Tick)
system.o3Cpu7.mmu.itb.rdAccesses                    0                       # TLB accesses on read requests (Count)
system.o3Cpu7.mmu.itb.wrAccesses                98010                       # TLB accesses on write requests (Count)
system.o3Cpu7.mmu.itb.rdMisses                      0                       # TLB misses on read requests (Count)
system.o3Cpu7.mmu.itb.wrMisses                     93                       # TLB misses on write requests (Count)
system.o3Cpu7.mmu.itb.walker.power_state.pwrStateResidencyTicks::UNDEFINED  29513629400                       # Cumulative time (in ticks) in various power states (Tick)
system.o3Cpu7.power_state.numTransitions            4                       # Number of power state transitions (Count)
system.o3Cpu7.power_state.ticksClkGated::samples            2                       # Distribution of time spent in the clock gated state (Tick)
system.o3Cpu7.power_state.ticksClkGated::mean    277178600                       # Distribution of time spent in the clock gated state (Tick)
system.o3Cpu7.power_state.ticksClkGated::stdev 295088953.396633                       # Distribution of time spent in the clock gated state (Tick)
system.o3Cpu7.power_state.ticksClkGated::1000-5e+10            2    100.00%    100.00% # Distribution of time spent in the clock gated state (Tick)
system.o3Cpu7.power_state.ticksClkGated::min_value     68519200                       # Distribution of time spent in the clock gated state (Tick)
system.o3Cpu7.power_state.ticksClkGated::max_value    485838000                       # Distribution of time spent in the clock gated state (Tick)
system.o3Cpu7.power_state.ticksClkGated::total            2                       # Distribution of time spent in the clock gated state (Tick)
system.o3Cpu7.power_state.pwrStateResidencyTicks::ON   6759519000                       # Cumulative time (in ticks) in various power states (Tick)
system.o3Cpu7.power_state.pwrStateResidencyTicks::CLK_GATED    554357200                       # Cumulative time (in ticks) in various power states (Tick)
system.o3Cpu7.power_state.pwrStateResidencyTicks::OFF  22199753200                       # Cumulative time (in ticks) in various power states (Tick)
system.o3Cpu7.rename.squashCycles               16859                       # Number of cycles rename is squashing (Cycle)
system.o3Cpu7.rename.idleCycles               1919653                       # Number of cycles rename is idle (Cycle)
system.o3Cpu7.rename.blockCycles             26102524                       # Number of cycles rename is blocking (Cycle)
system.o3Cpu7.rename.serializeStallCycles       223679                       # count of cycles rename stalled for serializing inst (Cycle)
system.o3Cpu7.rename.runCycles                5903620                       # Number of cycles rename is running (Cycle)
system.o3Cpu7.rename.unblockCycles          105153042                       # Number of cycles rename is unblocking (Cycle)
system.o3Cpu7.rename.renamedInsts            53001804                       # Number of instructions processed by rename (Count)
system.o3Cpu7.rename.ROBFullEvents             657017                       # Number of times rename has blocked due to ROB full (Count)
system.o3Cpu7.rename.IQFullEvents             2930556                       # Number of times rename has blocked due to IQ full (Count)
system.o3Cpu7.rename.LQFullEvents           102645567                       # Number of times rename has blocked due to LQ full (Count)
system.o3Cpu7.rename.SQFullEvents               91421                       # Number of times rename has blocked due to SQ full (Count)
system.o3Cpu7.rename.renamedOperands         90874473                       # Number of destination operands rename has renamed (Count)
system.o3Cpu7.rename.lookups                161098966                       # Number of register rename lookups that rename has made (Count)
system.o3Cpu7.rename.intLookups              52784705                       # Number of integer rename lookups (Count)
system.o3Cpu7.rename.fpLookups               22809655                       # Number of floating rename lookups (Count)
system.o3Cpu7.rename.committedMaps           90146470                       # Number of HB maps that are committed (Count)
system.o3Cpu7.rename.undoneMaps                727762                       # Number of HB maps that are undone due to squashing (Count)
system.o3Cpu7.rename.serializing                 1552                       # count of serializing insts renamed (Count)
system.o3Cpu7.rename.tempSerializing             1590                       # count of temporary serializing insts renamed (Count)
system.o3Cpu7.rename.skidInsts               11890556                       # count of insts added to the skid buffer (Count)
system.o3Cpu7.rob.reads                     187250809                       # The number of ROB reads (Count)
system.o3Cpu7.rob.writes                    105834153                       # The number of ROB writes (Count)
system.o3Cpu7.thread_0.numInsts              28537605                       # Number of Instructions committed (Count)
system.o3Cpu7.thread_0.numOps                52556483                       # Number of Ops committed (Count)
system.o3Cpu7.thread_0.numMemRefs                   0                       # Number of Memory References (Count)
system.pc.bad_addr.power_state.pwrStateResidencyTicks::UNDEFINED  29513629400                       # Cumulative time (in ticks) in various power states (Tick)
system.pc.com_1.power_state.pwrStateResidencyTicks::UNDEFINED  29513629400                       # Cumulative time (in ticks) in various power states (Tick)
system.pc.default_bus.power_state.pwrStateResidencyTicks::UNDEFINED  29513629400                       # Cumulative time (in ticks) in various power states (Tick)
system.pc.empty_isa.power_state.pwrStateResidencyTicks::UNDEFINED  29513629400                       # Cumulative time (in ticks) in various power states (Tick)
system.pc.fake_com_2.power_state.pwrStateResidencyTicks::UNDEFINED  29513629400                       # Cumulative time (in ticks) in various power states (Tick)
system.pc.fake_com_3.power_state.pwrStateResidencyTicks::UNDEFINED  29513629400                       # Cumulative time (in ticks) in various power states (Tick)
system.pc.fake_com_4.power_state.pwrStateResidencyTicks::UNDEFINED  29513629400                       # Cumulative time (in ticks) in various power states (Tick)
system.pc.fake_floppy.power_state.pwrStateResidencyTicks::UNDEFINED  29513629400                       # Cumulative time (in ticks) in various power states (Tick)
system.pc.pci_host.power_state.pwrStateResidencyTicks::UNDEFINED  29513629400                       # Cumulative time (in ticks) in various power states (Tick)
system.pc.south_bridge.cmos.power_state.pwrStateResidencyTicks::UNDEFINED  29513629400                       # Cumulative time (in ticks) in various power states (Tick)
system.pc.south_bridge.dma1.power_state.pwrStateResidencyTicks::UNDEFINED  29513629400                       # Cumulative time (in ticks) in various power states (Tick)
system.pc.south_bridge.ide.disks0.IdeDisk.dmaReadFullPages            0                       # Number of full page size DMA reads (not PRD). (Count)
system.pc.south_bridge.ide.disks0.IdeDisk.dmaReadBytes            0                       # Number of bytes transfered via DMA reads (not PRD). (Byte)
system.pc.south_bridge.ide.disks0.IdeDisk.dmaReadTxs            0                       # Number of DMA read transactions (not PRD). (Count)
system.pc.south_bridge.ide.disks0.IdeDisk.dmaWriteFullPages            0                       # Number of full page size DMA writes. (Count)
system.pc.south_bridge.ide.disks0.IdeDisk.dmaWriteBytes            0                       # Number of bytes transfered via DMA writes. (Byte)
system.pc.south_bridge.ide.disks0.IdeDisk.dmaWriteTxs            0                       # Number of DMA write transactions. (Count)
system.pc.south_bridge.ide.disks1.IdeDisk.dmaReadFullPages            0                       # Number of full page size DMA reads (not PRD). (Count)
system.pc.south_bridge.ide.disks1.IdeDisk.dmaReadBytes            0                       # Number of bytes transfered via DMA reads (not PRD). (Byte)
system.pc.south_bridge.ide.disks1.IdeDisk.dmaReadTxs            0                       # Number of DMA read transactions (not PRD). (Count)
system.pc.south_bridge.ide.disks1.IdeDisk.dmaWriteFullPages            0                       # Number of full page size DMA writes. (Count)
system.pc.south_bridge.ide.disks1.IdeDisk.dmaWriteBytes            0                       # Number of bytes transfered via DMA writes. (Byte)
system.pc.south_bridge.ide.disks1.IdeDisk.dmaWriteTxs            0                       # Number of DMA write transactions. (Count)
system.pc.south_bridge.ide.power_state.pwrStateResidencyTicks::UNDEFINED  29513629400                       # Cumulative time (in ticks) in various power states (Tick)
system.pc.south_bridge.io_apic.power_state.pwrStateResidencyTicks::UNDEFINED  29513629400                       # Cumulative time (in ticks) in various power states (Tick)
system.pc.south_bridge.keyboard.power_state.pwrStateResidencyTicks::UNDEFINED  29513629400                       # Cumulative time (in ticks) in various power states (Tick)
system.pc.south_bridge.pic1.power_state.pwrStateResidencyTicks::UNDEFINED  29513629400                       # Cumulative time (in ticks) in various power states (Tick)
system.pc.south_bridge.pic2.power_state.pwrStateResidencyTicks::UNDEFINED  29513629400                       # Cumulative time (in ticks) in various power states (Tick)
system.pc.south_bridge.pit.power_state.pwrStateResidencyTicks::UNDEFINED  29513629400                       # Cumulative time (in ticks) in various power states (Tick)
system.pc.south_bridge.speaker.power_state.pwrStateResidencyTicks::UNDEFINED  29513629400                       # Cumulative time (in ticks) in various power states (Tick)
system.workload.inst.arm                            0                       # number of arm instructions executed (Count)
system.workload.inst.quiesce                        0                       # number of quiesce instructions executed (Count)

---------- End Simulation Statistics   ----------
