
---------- Begin Simulation Statistics ----------
simSeconds                                   0.069022                       # Number of seconds simulated (Second)
simTicks                                  69021660250                       # Number of ticks simulated (Tick)
finalTick                                108118401761200                       # Number of ticks from beginning of simulation (restored from checkpoints and never reset) (Tick)
simFreq                                  1000000000000                       # The number of ticks per simulated second ((Tick/Second))
hostSeconds                                   8185.07                       # Real time elapsed on the host (Second)
hostTickRate                                  8432629                       # The number of ticks simulated per host second (ticks/s) ((Tick/Second))
hostMemory                                   19985392                       # Number of bytes of host memory used (Byte)
simInsts                                    239346635                       # Number of instructions simulated (Count)
simOps                                      440715326                       # Number of ops (including micro ops) simulated (Count)
hostInstRate                                    29242                       # Simulator instruction rate (inst/s) ((Count/Second))
hostOpRate                                      53844                       # Simulator op (including micro ops) rate (op/s) ((Count/Second))
system.caches.delayHistogram::bucket_size          128                       # delay histogram for all message (Unspecified)
system.caches.delayHistogram::max_bucket         1279                       # delay histogram for all message (Unspecified)
system.caches.delayHistogram::samples        92004461                       # delay histogram for all message (Unspecified)
system.caches.delayHistogram::mean           2.035127                       # delay histogram for all message (Unspecified)
system.caches.delayHistogram::stdev          6.292472                       # delay histogram for all message (Unspecified)
system.caches.delayHistogram             |    92004460    100.00%    100.00% |           0      0.00%    100.00% |           0      0.00%    100.00% |           0      0.00%    100.00% |           0      0.00%    100.00% |           0      0.00%    100.00% |           0      0.00%    100.00% |           0      0.00%    100.00% |           1      0.00%    100.00% |           0      0.00%    100.00% # delay histogram for all message (Unspecified)
system.caches.delayHistogram::total          92004461                       # delay histogram for all message (Unspecified)
system.caches.m_outstandReqHistSeqr::bucket_size            2                       (Unspecified)
system.caches.m_outstandReqHistSeqr::max_bucket           19                       (Unspecified)
system.caches.m_outstandReqHistSeqr::samples    129909638                       (Unspecified)
system.caches.m_outstandReqHistSeqr::mean     5.087725                       (Unspecified)
system.caches.m_outstandReqHistSeqr::gmean     3.965220                       (Unspecified)
system.caches.m_outstandReqHistSeqr::stdev     3.092669                       (Unspecified)
system.caches.m_outstandReqHistSeqr      |    19924586     15.34%     15.34% |    30879810     23.77%     39.11% |    19938964     15.35%     54.46% |    25914084     19.95%     74.40% |    21656393     16.67%     91.07% |    10994714      8.46%     99.54% |      593496      0.46%     99.99% |        6751      0.01%    100.00% |         840      0.00%    100.00% |           0      0.00%    100.00% (Unspecified)
system.caches.m_outstandReqHistSeqr::total    129909638                       (Unspecified)
system.caches.m_latencyHistSeqr::bucket_size         1024                       (Unspecified)
system.caches.m_latencyHistSeqr::max_bucket        10239                       (Unspecified)
system.caches.m_latencyHistSeqr::samples    129914815                       (Unspecified)
system.caches.m_latencyHistSeqr::mean       33.748600                       (Unspecified)
system.caches.m_latencyHistSeqr::gmean       2.250882                       (Unspecified)
system.caches.m_latencyHistSeqr::stdev     150.786780                       (Unspecified)
system.caches.m_latencyHistSeqr          |   129552825     99.72%     99.72% |      327894      0.25%     99.97% |       30559      0.02%    100.00% |        2794      0.00%    100.00% |         587      0.00%    100.00% |         126      0.00%    100.00% |          24      0.00%    100.00% |           5      0.00%    100.00% |           1      0.00%    100.00% |           0      0.00%    100.00% (Unspecified)
system.caches.m_latencyHistSeqr::total      129914815                       (Unspecified)
system.caches.m_hitLatencyHistSeqr::bucket_size          512                       (Unspecified)
system.caches.m_hitLatencyHistSeqr::max_bucket         5119                       (Unspecified)
system.caches.m_hitLatencyHistSeqr::samples     99500791                       (Unspecified)
system.caches.m_hitLatencyHistSeqr::mean     1.006357                       (Unspecified)
system.caches.m_hitLatencyHistSeqr::gmean     1.001682                       (Unspecified)
system.caches.m_hitLatencyHistSeqr::stdev     1.814528                       (Unspecified)
system.caches.m_hitLatencyHistSeqr       |    99500305    100.00%    100.00% |         443      0.00%    100.00% |          20      0.00%    100.00% |          18      0.00%    100.00% |           4      0.00%    100.00% |           1      0.00%    100.00% |           0      0.00%    100.00% |           0      0.00%    100.00% |           0      0.00%    100.00% |           0      0.00%    100.00% (Unspecified)
system.caches.m_hitLatencyHistSeqr::total     99500791                       (Unspecified)
system.caches.m_missLatencyHistSeqr::bucket_size         1024                       (Unspecified)
system.caches.m_missLatencyHistSeqr::max_bucket        10239                       (Unspecified)
system.caches.m_missLatencyHistSeqr::samples     30414024                       (Unspecified)
system.caches.m_missLatencyHistSeqr::mean   140.866261                       (Unspecified)
system.caches.m_missLatencyHistSeqr::gmean    31.820103                       (Unspecified)
system.caches.m_missLatencyHistSeqr::stdev   286.580457                       (Unspecified)
system.caches.m_missLatencyHistSeqr      |    30052077     98.81%     98.81% |      327856      1.08%     99.89% |       30554      0.10%     99.99% |        2794      0.01%    100.00% |         587      0.00%    100.00% |         126      0.00%    100.00% |          24      0.00%    100.00% |           5      0.00%    100.00% |           1      0.00%    100.00% |           0      0.00%    100.00% (Unspecified)
system.caches.m_missLatencyHistSeqr::total     30414024                       (Unspecified)
system.caches.delayVCHist.vnet_0::bucket_size          128                       # delay histogram for vnet_0 (Unspecified)
system.caches.delayVCHist.vnet_0::max_bucket         1279                       # delay histogram for vnet_0 (Unspecified)
system.caches.delayVCHist.vnet_0::samples     42227220                       # delay histogram for vnet_0 (Unspecified)
system.caches.delayVCHist.vnet_0::mean       0.091016                       # delay histogram for vnet_0 (Unspecified)
system.caches.delayVCHist.vnet_0::stdev      0.777168                       # delay histogram for vnet_0 (Unspecified)
system.caches.delayVCHist.vnet_0         |    42227219    100.00%    100.00% |           0      0.00%    100.00% |           0      0.00%    100.00% |           0      0.00%    100.00% |           0      0.00%    100.00% |           0      0.00%    100.00% |           0      0.00%    100.00% |           0      0.00%    100.00% |           1      0.00%    100.00% |           0      0.00%    100.00% # delay histogram for vnet_0 (Unspecified)
system.caches.delayVCHist.vnet_0::total      42227220                       # delay histogram for vnet_0 (Unspecified)
system.caches.delayVCHist.vnet_1::bucket_size            8                       # delay histogram for vnet_1 (Unspecified)
system.caches.delayVCHist.vnet_1::max_bucket           79                       # delay histogram for vnet_1 (Unspecified)
system.caches.delayVCHist.vnet_1::samples     48834327                       # delay histogram for vnet_1 (Unspecified)
system.caches.delayVCHist.vnet_1::mean       3.755470                       # delay histogram for vnet_1 (Unspecified)
system.caches.delayVCHist.vnet_1::stdev      8.232126                       # delay histogram for vnet_1 (Unspecified)
system.caches.delayVCHist.vnet_1         |    40605977     83.15%     83.15% |     2595922      5.32%     88.47% |     2422063      4.96%     93.43% |     1889141      3.87%     97.29% |     1156776      2.37%     99.66% |      163529      0.33%    100.00% |         918      0.00%    100.00% |           1      0.00%    100.00% |           0      0.00%    100.00% |           0      0.00%    100.00% # delay histogram for vnet_1 (Unspecified)
system.caches.delayVCHist.vnet_1::total      48834327                       # delay histogram for vnet_1 (Unspecified)
system.caches.delayVCHist.vnet_2::bucket_size            1                       # delay histogram for vnet_2 (Unspecified)
system.caches.delayVCHist.vnet_2::max_bucket            9                       # delay histogram for vnet_2 (Unspecified)
system.caches.delayVCHist.vnet_2::samples       942914                       # delay histogram for vnet_2 (Unspecified)
system.caches.delayVCHist.vnet_2::mean       0.001733                       # delay histogram for vnet_2 (Unspecified)
system.caches.delayVCHist.vnet_2::stdev      0.058846                       # delay histogram for vnet_2 (Unspecified)
system.caches.delayVCHist.vnet_2         |      942097     99.91%     99.91% |           0      0.00%     99.91% |         817      0.09%    100.00% |           0      0.00%    100.00% |           0      0.00%    100.00% |           0      0.00%    100.00% |           0      0.00%    100.00% |           0      0.00%    100.00% |           0      0.00%    100.00% |           0      0.00%    100.00% # delay histogram for vnet_2 (Unspecified)
system.caches.delayVCHist.vnet_2::total        942914                       # delay histogram for vnet_2 (Unspecified)
system.caches.L1Cache_Controller.Load    |     8217322     12.21%     12.21% |     8451262     12.56%     24.77% |     8395028     12.48%     37.24% |     8449200     12.56%     49.80% |     8504164     12.64%     62.44% |     8418107     12.51%     74.95% |     8580636     12.75%     87.70% |     8278194     12.30%    100.00% (Unspecified)
system.caches.L1Cache_Controller.Load::total     67293913                       (Unspecified)
system.caches.L1Cache_Controller.Ifetch  |     7814220     12.64%     12.64% |     7708004     12.47%     25.11% |     7712416     12.48%     37.59% |     7716710     12.49%     50.08% |     7759328     12.55%     62.63% |     7760437     12.56%     75.19% |     7731555     12.51%     87.70% |     7603314     12.30%    100.00% (Unspecified)
system.caches.L1Cache_Controller.Ifetch::total     61805984                       (Unspecified)
system.caches.L1Cache_Controller.Store   |      118119     14.49%     14.49% |       99284     12.18%     26.68% |       99534     12.21%     38.89% |       99449     12.20%     51.09% |       99416     12.20%     63.29% |       99385     12.20%     75.49% |       99327     12.19%     87.68% |      100421     12.32%    100.00% (Unspecified)
system.caches.L1Cache_Controller.Store::total       814935                       (Unspecified)
system.caches.L1Cache_Controller.Inv     |      110295     13.23%     13.23% |      102624     12.31%     25.54% |      103729     12.44%     37.98% |      104414     12.52%     50.50% |      105059     12.60%     63.10% |      103478     12.41%     75.51% |      102127     12.25%     87.76% |      102097     12.24%    100.00% (Unspecified)
system.caches.L1Cache_Controller.Inv::total       833823                       (Unspecified)
system.caches.L1Cache_Controller.L1_Replacement |     3835940     12.64%     12.64% |     3782193     12.47%     25.11% |     3785475     12.48%     37.59% |     3788266     12.49%     50.08% |     3808383     12.55%     62.63% |     3809547     12.56%     75.19% |     3795663     12.51%     87.70% |     3732751     12.30%    100.00% (Unspecified)
system.caches.L1Cache_Controller.L1_Replacement::total     30338218                       (Unspecified)
system.caches.L1Cache_Controller.Fwd_GETX |           7      7.45%      7.45% |          17     18.09%     25.53% |          17     18.09%     43.62% |          12     12.77%     56.38% |          10     10.64%     67.02% |          12     12.77%     79.79% |          12     12.77%     92.55% |           7      7.45%    100.00% (Unspecified)
system.caches.L1Cache_Controller.Fwd_GETX::total           94                       (Unspecified)
system.caches.L1Cache_Controller.Fwd_GETS |       15010     13.77%     13.77% |       13793     12.65%     26.43% |       13536     12.42%     38.85% |       13452     12.34%     51.19% |       13359     12.26%     63.44% |       13367     12.26%     75.71% |       13273     12.18%     87.89% |       13204     12.11%    100.00% (Unspecified)
system.caches.L1Cache_Controller.Fwd_GETS::total       108994                       (Unspecified)
system.caches.L1Cache_Controller.Fwd_GET_INSTR |           3    100.00%    100.00% |           0      0.00%    100.00% |           0      0.00%    100.00% |           0      0.00%    100.00% |           0      0.00%    100.00% |           0      0.00%    100.00% |           0      0.00%    100.00% |           0      0.00%    100.00% (Unspecified)
system.caches.L1Cache_Controller.Fwd_GET_INSTR::total            3                       (Unspecified)
system.caches.L1Cache_Controller.Data    |          68     91.89%     91.89% |           0      0.00%     91.89% |           1      1.35%     93.24% |           2      2.70%     95.95% |           1      1.35%     97.30% |           1      1.35%     98.65% |           1      1.35%    100.00% |           0      0.00%    100.00% (Unspecified)
system.caches.L1Cache_Controller.Data::total           74                       (Unspecified)
system.caches.L1Cache_Controller.Data_Exclusive |      743366     12.65%     12.65% |      733521     12.48%     25.12% |      734517     12.50%     37.62% |      733531     12.48%     50.10% |      737290     12.54%     62.64% |      738478     12.56%     75.20% |      734523     12.50%     87.70% |      723152     12.30%    100.00% (Unspecified)
system.caches.L1Cache_Controller.Data_Exclusive::total      5878378                       (Unspecified)
system.caches.L1Cache_Controller.DataS_fromL1 |       13656     12.53%     12.53% |       14310     13.13%     25.66% |       13667     12.54%     38.20% |       13208     12.12%     50.31% |       13616     12.49%     62.81% |       13340     12.24%     75.05% |       13609     12.49%     87.53% |       13591     12.47%    100.00% (Unspecified)
system.caches.L1Cache_Controller.DataS_fromL1::total       108997                       (Unspecified)
system.caches.L1Cache_Controller.Data_all_Acks |     3086243     12.64%     12.64% |     3042666     12.46%     25.10% |     3045467     12.47%     37.58% |     3049671     12.49%     50.07% |     3065647     12.56%     62.62% |     3065626     12.56%     75.18% |     3055414     12.51%     87.70% |     3004104     12.30%    100.00% (Unspecified)
system.caches.L1Cache_Controller.Data_all_Acks::total     24414838                       (Unspecified)
system.caches.L1Cache_Controller.Ack     |       12435     15.72%     15.72% |        6802      8.60%     24.31% |        6954      8.79%     33.10% |       10421     13.17%     46.27% |       11689     14.77%     61.05% |        8667     10.95%     72.00% |       13100     16.56%     88.56% |        9051     11.44%    100.00% (Unspecified)
system.caches.L1Cache_Controller.Ack::total        79119                       (Unspecified)
system.caches.L1Cache_Controller.Ack_all |        2050     17.36%     17.36% |        1007      8.53%     25.88% |        1021      8.64%     34.53% |        1530     12.95%     47.48% |        1710     14.48%     61.96% |        1269     10.74%     72.70% |        1906     16.14%     88.84% |        1318     11.16%    100.00% (Unspecified)
system.caches.L1Cache_Controller.Ack_all::total        11811                       (Unspecified)
system.caches.L1Cache_Controller.WB_Ack  |      731594     12.65%     12.65% |      721903     12.48%     25.14% |      722269     12.49%     37.63% |      720498     12.46%     50.08% |      724069     12.52%     62.61% |      726562     12.56%     75.17% |      723941     12.52%     87.69% |      711886     12.31%    100.00% (Unspecified)
system.caches.L1Cache_Controller.WB_Ack::total      5782722                       (Unspecified)
system.caches.L1Cache_Controller.NP.Load |     3822093     12.63%     12.63% |     3773739     12.47%     25.10% |     3776678     12.48%     37.58% |     3779521     12.49%     50.07% |     3799702     12.56%     62.62% |     3800834     12.56%     75.18% |     3786962     12.51%     87.70% |     3723793     12.30%    100.00% (Unspecified)
system.caches.L1Cache_Controller.NP.Load::total     30263322                       (Unspecified)
system.caches.L1Cache_Controller.NP.Ifetch |        9213     20.64%     20.64% |        4800     10.75%     31.39% |        5132     11.50%     42.89% |        5080     11.38%     54.27% |        5025     11.26%     65.52% |        5033     11.27%     76.80% |        5027     11.26%     88.06% |        5332     11.94%    100.00% (Unspecified)
system.caches.L1Cache_Controller.NP.Ifetch::total        44642                       (Unspecified)
system.caches.L1Cache_Controller.NP.Store |        4825     15.42%     15.42% |        3772     12.06%     27.48% |        3790     12.11%     39.59% |        3784     12.10%     51.69% |        3771     12.05%     63.74% |        3800     12.15%     75.89% |        3793     12.12%     88.01% |        3750     11.99%    100.00% (Unspecified)
system.caches.L1Cache_Controller.NP.Store::total        31285                       (Unspecified)
system.caches.L1Cache_Controller.NP.Inv  |       91199     12.76%     12.76% |       89254     12.49%     25.24% |       89514     12.52%     37.77% |       88923     12.44%     50.21% |       89285     12.49%     62.70% |       89473     12.52%     75.22% |       88895     12.44%     87.65% |       88265     12.35%    100.00% (Unspecified)
system.caches.L1Cache_Controller.NP.Inv::total       714808                       (Unspecified)
system.caches.L1Cache_Controller.I.Load  |         101      2.11%      2.11% |         775     16.18%     18.29% |         776     16.20%     34.49% |         764     15.95%     50.44% |         765     15.97%     66.41% |         485     10.13%     76.53% |         466      9.73%     86.26% |         658     13.74%    100.00% (Unspecified)
system.caches.L1Cache_Controller.I.Load::total         4790                       (Unspecified)
system.caches.L1Cache_Controller.I.Ifetch |        7099     12.20%     12.20% |        7406     12.73%     24.92% |        7273     12.50%     37.42% |        7260     12.47%     49.90% |        7289     12.52%     62.42% |        7292     12.53%     74.95% |        7297     12.54%     87.49% |        7281     12.51%    100.00% (Unspecified)
system.caches.L1Cache_Controller.I.Ifetch::total        58197                       (Unspecified)
system.caches.L1Cache_Controller.I.Store |           4      6.25%      6.25% |           8     12.50%     18.75% |           5      7.81%     26.56% |           4      6.25%     32.81% |           3      4.69%     37.50% |           3      4.69%     42.19% |           3      4.69%     46.88% |          34     53.12%    100.00% (Unspecified)
system.caches.L1Cache_Controller.I.Store::total           64                       (Unspecified)
system.caches.L1Cache_Controller.I.L1_Replacement |       11736     14.02%     14.02% |        9168     10.96%     24.98% |       10150     12.13%     37.11% |       11446     13.68%     50.79% |       11694     13.97%     64.76% |       10209     12.20%     76.96% |        9449     11.29%     88.25% |        9832     11.75%    100.00% (Unspecified)
system.caches.L1Cache_Controller.I.L1_Replacement::total        83684                       (Unspecified)
system.caches.L1Cache_Controller.S.Load  |      843859      9.63%      9.63% |     1189009     13.56%     23.19% |     1126758     12.85%     36.04% |     1183893     13.50%     49.55% |     1198517     13.67%     63.22% |     1110518     12.67%     75.88% |     1298595     14.81%     90.70% |      815522      9.30%    100.00% (Unspecified)
system.caches.L1Cache_Controller.S.Load::total      8766671                       (Unspecified)
system.caches.L1Cache_Controller.S.Ifetch |     7797905     12.64%     12.64% |     7695798     12.47%     25.11% |     7700011     12.48%     37.59% |     7704370     12.49%     50.08% |     7747014     12.56%     62.63% |     7748112     12.56%     75.19% |     7719231     12.51%     87.70% |     7590701     12.30%    100.00% (Unspecified)
system.caches.L1Cache_Controller.S.Ifetch::total     61703142                       (Unspecified)
system.caches.L1Cache_Controller.S.Store |        1982     16.89%     16.89% |        1007      8.58%     25.47% |        1020      8.69%     34.16% |        1528     13.02%     47.18% |        1709     14.56%     61.74% |        1268     10.80%     72.54% |        1905     16.23%     88.77% |        1318     11.23%    100.00% (Unspecified)
system.caches.L1Cache_Controller.S.Store::total        11737                       (Unspecified)
system.caches.L1Cache_Controller.S.Inv   |       12200     13.43%     13.43% |       11466     12.62%     26.05% |       11365     12.51%     38.57% |       11281     12.42%     50.99% |       11089     12.21%     63.19% |       11085     12.20%     75.40% |       10950     12.06%     87.45% |       11396     12.55%    100.00% (Unspecified)
system.caches.L1Cache_Controller.S.Inv::total        90832                       (Unspecified)
system.caches.L1Cache_Controller.S.L1_Replacement |     3092610     12.64%     12.64% |     3051121     12.47%     25.11% |     3053056     12.48%     37.58% |     3056321     12.49%     50.07% |     3072618     12.56%     62.63% |     3072776     12.56%     75.18% |     3062273     12.51%     87.70% |     3011033     12.30%    100.00% (Unspecified)
system.caches.L1Cache_Controller.S.L1_Replacement::total     24471808                       (Unspecified)
system.caches.L1Cache_Controller.E.Load  |     3484233     12.51%     12.51% |     3438068     12.35%     24.86% |     3441334     12.36%     37.22% |     3435598     12.34%     49.55% |     3456135     12.41%     61.97% |     3456692     12.41%     74.38% |     3446099     12.38%     86.75% |     3688496     13.25%    100.00% (Unspecified)
system.caches.L1Cache_Controller.E.Load::total     27846655                       (Unspecified)
system.caches.L1Cache_Controller.E.Store |        6602     12.86%     12.86% |        6778     13.20%     26.07% |        6773     13.19%     39.26% |        6251     12.18%     51.44% |        6082     11.85%     63.29% |        6501     12.66%     75.95% |        5864     11.42%     87.37% |        6481     12.63%    100.00% (Unspecified)
system.caches.L1Cache_Controller.E.Store::total        51332                       (Unspecified)
system.caches.L1Cache_Controller.E.Inv   |        6705     25.40%     25.40% |        1632      6.18%     31.58% |        2527      9.57%     41.16% |        3940     14.93%     56.08% |        4505     17.07%     73.15% |        2713     10.28%     83.43% |        2126      8.05%     91.48% |        2249      8.52%    100.00% (Unspecified)
system.caches.L1Cache_Controller.E.Inv::total        26397                       (Unspecified)
system.caches.L1Cache_Controller.E.L1_Replacement |      715890     12.57%     12.57% |      711592     12.50%     25.07% |      711968     12.50%     37.57% |      710087     12.47%     50.04% |      713606     12.53%     62.58% |      716165     12.58%     75.15% |      713412     12.53%     87.68% |      701364     12.32%    100.00% (Unspecified)
system.caches.L1Cache_Controller.E.L1_Replacement::total      5694084                       (Unspecified)
system.caches.L1Cache_Controller.E.Fwd_GETX |           3     13.64%     13.64% |           5     22.73%     36.36% |           6     27.27%     63.64% |           3     13.64%     77.27% |           1      4.55%     81.82% |           1      4.55%     86.36% |           1      4.55%     90.91% |           2      9.09%    100.00% (Unspecified)
system.caches.L1Cache_Controller.E.Fwd_GETX::total           22                       (Unspecified)
system.caches.L1Cache_Controller.E.Fwd_GETS |       13439     13.34%     13.34% |       12770     12.68%     26.02% |       12510     12.42%     38.45% |       12488     12.40%     50.85% |       12370     12.28%     63.13% |       12394     12.31%     75.44% |       12405     12.32%     87.75% |       12333     12.25%    100.00% (Unspecified)
system.caches.L1Cache_Controller.E.Fwd_GETS::total       100709                       (Unspecified)
system.caches.L1Cache_Controller.E.Fwd_GET_INSTR |           3    100.00%    100.00% |           0      0.00%    100.00% |           0      0.00%    100.00% |           0      0.00%    100.00% |           0      0.00%    100.00% |           0      0.00%    100.00% |           0      0.00%    100.00% |           0      0.00%    100.00% (Unspecified)
system.caches.L1Cache_Controller.E.Fwd_GET_INSTR::total            3                       (Unspecified)
system.caches.L1Cache_Controller.M.Load  |       67036     16.25%     16.25% |       49671     12.04%     28.29% |       49482     12.00%     40.29% |       49424     11.98%     52.27% |       49045     11.89%     64.16% |       49577     12.02%     76.18% |       48514     11.76%     87.94% |       49725     12.06%    100.00% (Unspecified)
system.caches.L1Cache_Controller.M.Load::total       412474                       (Unspecified)
system.caches.L1Cache_Controller.M.Store |      104706     14.53%     14.53% |       87719     12.17%     26.71% |       87946     12.21%     38.91% |       87882     12.20%     51.11% |       87851     12.19%     63.30% |       87813     12.19%     75.49% |       87762     12.18%     87.67% |       88838     12.33%    100.00% (Unspecified)
system.caches.L1Cache_Controller.M.Store::total       720517                       (Unspecified)
system.caches.L1Cache_Controller.M.Inv   |         191     13.07%     13.07% |         216     14.78%     27.86% |         247     16.91%     44.76% |         179     12.25%     57.02% |         101      6.91%     63.93% |         189     12.94%     76.87% |         154     10.54%     87.41% |         184     12.59%    100.00% (Unspecified)
system.caches.L1Cache_Controller.M.Inv::total         1461                       (Unspecified)
system.caches.L1Cache_Controller.M.L1_Replacement |       15704     17.72%     17.72% |       10312     11.63%     29.35% |       10301     11.62%     40.97% |       10412     11.75%     52.72% |       10463     11.80%     64.52% |       10397     11.73%     76.25% |       10529     11.88%     88.13% |       10522     11.87%    100.00% (Unspecified)
system.caches.L1Cache_Controller.M.L1_Replacement::total        88640                       (Unspecified)
system.caches.L1Cache_Controller.M.Fwd_GETX |           4      5.56%      5.56% |          12     16.67%     22.22% |          11     15.28%     37.50% |           9     12.50%     50.00% |           9     12.50%     62.50% |          11     15.28%     77.78% |          11     15.28%     93.06% |           5      6.94%    100.00% (Unspecified)
system.caches.L1Cache_Controller.M.Fwd_GETX::total           72                       (Unspecified)
system.caches.L1Cache_Controller.M.Fwd_GETS |        1571     18.97%     18.97% |        1023     12.35%     31.32% |        1026     12.39%     43.70% |         964     11.64%     55.34% |         989     11.94%     67.28% |         972     11.73%     79.02% |         868     10.48%     89.50% |         870     10.50%    100.00% (Unspecified)
system.caches.L1Cache_Controller.M.Fwd_GETS::total         8283                       (Unspecified)
system.caches.L1Cache_Controller.IS.Inv  |           0      0.00%      0.00% |          56     17.39%     17.39% |          76     23.60%     40.99% |          90     27.95%     68.94% |          78     24.22%     93.17% |          18      5.59%     98.76% |           2      0.62%     99.38% |           2      0.62%    100.00% (Unspecified)
system.caches.L1Cache_Controller.IS.Inv::total          322                       (Unspecified)
system.caches.L1Cache_Controller.IS.L1_Replacement |           0      0.00%      0.00% |           0      0.00%      0.00% |           0      0.00%      0.00% |           0      0.00%      0.00% |           2    100.00%    100.00% |           0      0.00%    100.00% |           0      0.00%    100.00% |           0      0.00%    100.00% (Unspecified)
system.caches.L1Cache_Controller.IS.L1_Replacement::total            2                       (Unspecified)
system.caches.L1Cache_Controller.IS.Data_Exclusive |      743366     12.65%     12.65% |      733519     12.48%     25.12% |      734516     12.50%     37.62% |      733531     12.48%     50.10% |      737289     12.54%     62.64% |      738478     12.56%     75.20% |      734523     12.50%     87.70% |      723152     12.30%    100.00% (Unspecified)
system.caches.L1Cache_Controller.IS.Data_Exclusive::total      5878374                       (Unspecified)
system.caches.L1Cache_Controller.IS.DataS_fromL1 |       13656     12.53%     12.53% |       14310     13.13%     25.66% |       13667     12.54%     38.20% |       13208     12.12%     50.31% |       13616     12.49%     62.81% |       13340     12.24%     75.05% |       13609     12.49%     87.53% |       13591     12.47%    100.00% (Unspecified)
system.caches.L1Cache_Controller.IS.DataS_fromL1::total       108997                       (Unspecified)
system.caches.L1Cache_Controller.IS.Data_all_Acks |     3081482     12.64%     12.64% |     3038832     12.46%     25.10% |     3041598     12.47%     37.57% |     3045795     12.49%     50.07% |     3061797     12.56%     62.62% |     3061806     12.56%     75.18% |     3051617     12.52%     87.70% |     3000318     12.30%    100.00% (Unspecified)
system.caches.L1Cache_Controller.IS.Data_all_Acks::total     24383245                       (Unspecified)
system.caches.L1Cache_Controller.IM.Data |          68     91.89%     91.89% |           0      0.00%     91.89% |           1      1.35%     93.24% |           2      2.70%     95.95% |           1      1.35%     97.30% |           1      1.35%     98.65% |           1      1.35%    100.00% |           0      0.00%    100.00% (Unspecified)
system.caches.L1Cache_Controller.IM.Data::total           74                       (Unspecified)
system.caches.L1Cache_Controller.IM.Data_all_Acks |        4761     15.22%     15.22% |        3780     12.09%     27.31% |        3794     12.13%     39.44% |        3786     12.11%     51.55% |        3773     12.06%     63.61% |        3802     12.16%     75.77% |        3795     12.13%     87.90% |        3784     12.10%    100.00% (Unspecified)
system.caches.L1Cache_Controller.IM.Data_all_Acks::total        31275                       (Unspecified)
system.caches.L1Cache_Controller.SM.Ack  |       12435     15.72%     15.72% |        6802      8.60%     24.31% |        6954      8.79%     33.10% |       10421     13.17%     46.27% |       11689     14.77%     61.05% |        8667     10.95%     72.00% |       13100     16.56%     88.56% |        9051     11.44%    100.00% (Unspecified)
system.caches.L1Cache_Controller.SM.Ack::total        79119                       (Unspecified)
system.caches.L1Cache_Controller.SM.Ack_all |        2050     17.36%     17.36% |        1007      8.53%     25.88% |        1021      8.64%     34.53% |        1530     12.95%     47.48% |        1710     14.48%     61.96% |        1269     10.74%     72.70% |        1906     16.14%     88.84% |        1318     11.16%    100.00% (Unspecified)
system.caches.L1Cache_Controller.SM.Ack_all::total        11811                       (Unspecified)
system.caches.L1Cache_Controller.IS_I.Data_Exclusive |           0      0.00%      0.00% |           2     50.00%     50.00% |           1     25.00%     75.00% |           0      0.00%     75.00% |           1     25.00%    100.00% |           0      0.00%    100.00% |           0      0.00%    100.00% |           0      0.00%    100.00% (Unspecified)
system.caches.L1Cache_Controller.IS_I.Data_Exclusive::total            4                       (Unspecified)
system.caches.L1Cache_Controller.IS_I.Data_all_Acks |           0      0.00%      0.00% |          54     16.98%     16.98% |          75     23.58%     40.57% |          90     28.30%     68.87% |          77     24.21%     93.08% |          18      5.66%     98.74% |           2      0.63%     99.37% |           2      0.63%    100.00% (Unspecified)
system.caches.L1Cache_Controller.IS_I.Data_all_Acks::total          318                       (Unspecified)
system.caches.L1Cache_Controller.M_I.Load |           0      0.00%      0.00% |           0      0.00%      0.00% |           0      0.00%      0.00% |           0      0.00%      0.00% |           0      0.00%      0.00% |           1    100.00%    100.00% |           0      0.00%    100.00% |           0      0.00%    100.00% (Unspecified)
system.caches.L1Cache_Controller.M_I.Load::total            1                       (Unspecified)
system.caches.L1Cache_Controller.M_I.Ifetch |           3    100.00%    100.00% |           0      0.00%    100.00% |           0      0.00%    100.00% |           0      0.00%    100.00% |           0      0.00%    100.00% |           0      0.00%    100.00% |           0      0.00%    100.00% |           0      0.00%    100.00% (Unspecified)
system.caches.L1Cache_Controller.M_I.Ifetch::total            3                       (Unspecified)
system.caches.L1Cache_Controller.M_I.Inv |           0      0.00%      0.00% |           0      0.00%      0.00% |           0      0.00%      0.00% |           1     33.33%     33.33% |           1     33.33%     66.67% |           0      0.00%     66.67% |           0      0.00%     66.67% |           1     33.33%    100.00% (Unspecified)
system.caches.L1Cache_Controller.M_I.Inv::total            3                       (Unspecified)
system.caches.L1Cache_Controller.M_I.Fwd_GETS |           0      0.00%      0.00% |           0      0.00%      0.00% |           0      0.00%      0.00% |           0      0.00%      0.00% |           0      0.00%      0.00% |           1     50.00%     50.00% |           0      0.00%     50.00% |           1     50.00%    100.00% (Unspecified)
system.caches.L1Cache_Controller.M_I.Fwd_GETS::total            2                       (Unspecified)
system.caches.L1Cache_Controller.M_I.WB_Ack |      731594     12.65%     12.65% |      721903     12.48%     25.14% |      722269     12.49%     37.63% |      720497     12.46%     50.08% |      724068     12.52%     62.61% |      726561     12.56%     75.17% |      723941     12.52%     87.69% |      711884     12.31%    100.00% (Unspecified)
system.caches.L1Cache_Controller.M_I.WB_Ack::total      5782717                       (Unspecified)
system.caches.L1Cache_Controller.SINK_WB_ACK.WB_Ack |           0      0.00%      0.00% |           0      0.00%      0.00% |           0      0.00%      0.00% |           1     20.00%     20.00% |           1     20.00%     40.00% |           1     20.00%     60.00% |           0      0.00%     60.00% |           2     40.00%    100.00% (Unspecified)
system.caches.L1Cache_Controller.SINK_WB_ACK.WB_Ack::total            5                       (Unspecified)
system.caches.Directory_Controller.Fetch |       18344      0.31%      0.31% |     5829041     99.69%    100.00% (Unspecified)
system.caches.Directory_Controller.Fetch::total      5847385                       (Unspecified)
system.caches.Directory_Controller.Data  |        1259      0.87%      0.87% |      143639     99.13%    100.00% (Unspecified)
system.caches.Directory_Controller.Data::total       144898                       (Unspecified)
system.caches.Directory_Controller.Memory_Data |       18344      0.31%      0.31% |     5829032     99.69%    100.00% (Unspecified)
system.caches.Directory_Controller.Memory_Data::total      5847376                       (Unspecified)
system.caches.Directory_Controller.Memory_Ack |        1259      0.87%      0.87% |      143639     99.13%    100.00% (Unspecified)
system.caches.Directory_Controller.Memory_Ack::total       144898                       (Unspecified)
system.caches.Directory_Controller.CleanReplacement |       17125      0.30%      0.30% |     5685362     99.70%    100.00% (Unspecified)
system.caches.Directory_Controller.CleanReplacement::total      5702487                       (Unspecified)
system.caches.Directory_Controller.I.Fetch |       18344      0.31%      0.31% |     5829041     99.69%    100.00% (Unspecified)
system.caches.Directory_Controller.I.Fetch::total      5847385                       (Unspecified)
system.caches.Directory_Controller.M.Data |        1259      0.87%      0.87% |      143639     99.13%    100.00% (Unspecified)
system.caches.Directory_Controller.M.Data::total       144898                       (Unspecified)
system.caches.Directory_Controller.M.CleanReplacement |       17125      0.30%      0.30% |     5685362     99.70%    100.00% (Unspecified)
system.caches.Directory_Controller.M.CleanReplacement::total      5702487                       (Unspecified)
system.caches.Directory_Controller.IM.Memory_Data |       18344      0.31%      0.31% |     5829032     99.69%    100.00% (Unspecified)
system.caches.Directory_Controller.IM.Memory_Data::total      5847376                       (Unspecified)
system.caches.Directory_Controller.MI.Memory_Ack |        1259      0.87%      0.87% |      143639     99.13%    100.00% (Unspecified)
system.caches.Directory_Controller.MI.Memory_Ack::total       144898                       (Unspecified)
system.caches.L2Cache_Controller.L1_GET_INSTR |       14303     13.88%     13.88% |       13384     12.99%     26.88% |       12396     12.03%     38.91% |        8781      8.52%     47.43% |       12635     12.27%     59.70% |       12918     12.54%     72.24% |       14453     14.03%     86.27% |       14145     13.73%    100.00% (Unspecified)
system.caches.L2Cache_Controller.L1_GET_INSTR::total       103015                       (Unspecified)
system.caches.L2Cache_Controller.L1_GETS |     3790813     12.52%     12.52% |     3788818     12.52%     25.04% |     3781187     12.49%     37.53% |     3782537     12.50%     50.03% |     3788644     12.52%     62.54% |     3782414     12.50%     75.04% |     3778402     12.48%     87.52% |     3778254     12.48%    100.00% (Unspecified)
system.caches.L2Cache_Controller.L1_GETS::total     30271069                       (Unspecified)
system.caches.L2Cache_Controller.L1_GETX |        4527     14.42%     14.42% |        3743     11.92%     26.34% |        2338      7.45%     33.79% |        3374     10.75%     44.54% |        3728     11.87%     56.41% |        5426     17.28%     73.69% |        3878     12.35%     86.05% |        4381     13.95%    100.00% (Unspecified)
system.caches.L2Cache_Controller.L1_GETX::total        31395                       (Unspecified)
system.caches.L2Cache_Controller.L1_UPGRADE |        1427     12.02%     12.02% |        1434     12.08%     24.10% |        1408     11.86%     35.97% |        1401     11.80%     47.77% |        1454     12.25%     60.02% |        1404     11.83%     71.85% |        1886     15.89%     87.74% |        1455     12.26%    100.00% (Unspecified)
system.caches.L2Cache_Controller.L1_UPGRADE::total        11869                       (Unspecified)
system.caches.L2Cache_Controller.L1_PUTX |      723618     12.51%     12.51% |      723441     12.51%     25.02% |      720199     12.45%     37.48% |      722248     12.49%     49.97% |      722534     12.49%     62.46% |      724818     12.53%     75.00% |      722627     12.50%     87.49% |      723237     12.51%    100.00% (Unspecified)
system.caches.L2Cache_Controller.L1_PUTX::total      5782722                       (Unspecified)
system.caches.L2Cache_Controller.L1_PUTX_old |           0      0.00%      0.00% |           0      0.00%      0.00% |           0      0.00%      0.00% |           2     33.33%     33.33% |           2     33.33%     66.67% |           2     33.33%    100.00% |           0      0.00%    100.00% |           0      0.00%    100.00% (Unspecified)
system.caches.L2Cache_Controller.L1_PUTX_old::total            6                       (Unspecified)
system.caches.L2Cache_Controller.L2_Replacement |       18368     12.80%     12.80% |       17419     12.14%     24.94% |       16279     11.34%     36.28% |       17628     12.28%     48.56% |       17561     12.24%     60.80% |       19396     13.52%     74.32% |       18074     12.59%     86.91% |       18783     13.09%    100.00% (Unspecified)
system.caches.L2Cache_Controller.L2_Replacement::total       143508                       (Unspecified)
system.caches.L2Cache_Controller.L2_Replacement_clean |      713928     12.52%     12.52% |      714312     12.52%     25.04% |      712215     12.49%     37.53% |      712097     12.48%     50.01% |      713014     12.50%     62.51% |      713083     12.50%     75.01% |      712426     12.49%     87.50% |      712804     12.50%    100.00% (Unspecified)
system.caches.L2Cache_Controller.L2_Replacement_clean::total      5703879                       (Unspecified)
system.caches.L2Cache_Controller.Mem_Data |      732293     12.52%     12.52% |      731730     12.51%     25.04% |      728493     12.46%     37.50% |      729724     12.48%     49.98% |      730575     12.49%     62.47% |      732477     12.53%     75.00% |      730499     12.49%     87.49% |      731585     12.51%    100.00% (Unspecified)
system.caches.L2Cache_Controller.Mem_Data::total      5847376                       (Unspecified)
system.caches.L2Cache_Controller.Mem_Ack |      732296     12.52%     12.52% |      731730     12.51%     25.04% |      728494     12.46%     37.50% |      729725     12.48%     49.98% |      730575     12.49%     62.47% |      732478     12.53%     75.00% |      730500     12.49%     87.49% |      731587     12.51%    100.00% (Unspecified)
system.caches.L2Cache_Controller.Mem_Ack::total      5847385                       (Unspecified)
system.caches.L2Cache_Controller.WB_Data |        1263     12.96%     12.96% |        1161     11.91%     24.87% |        1115     11.44%     36.32% |        1137     11.67%     47.98% |        1203     12.34%     60.33% |        1150     11.80%     72.13% |        1569     16.10%     88.23% |        1147     11.77%    100.00% (Unspecified)
system.caches.L2Cache_Controller.WB_Data::total         9745                       (Unspecified)
system.caches.L2Cache_Controller.WB_Data_clean |       13060     12.97%     12.97% |       12760     12.67%     25.64% |       12315     12.23%     37.86% |       12334     12.25%     50.11% |       12444     12.36%     62.47% |       12678     12.59%     75.05% |       12498     12.41%     87.46% |       12627     12.54%    100.00% (Unspecified)
system.caches.L2Cache_Controller.WB_Data_clean::total       100716                       (Unspecified)
system.caches.L2Cache_Controller.Ack     |       84151     13.35%     13.35% |       80608     12.79%     26.13% |       77466     12.29%     38.42% |       73990     11.74%     50.16% |       77705     12.33%     62.48% |       78732     12.49%     74.97% |       77547     12.30%     87.27% |       80244     12.73%    100.00% (Unspecified)
system.caches.L2Cache_Controller.Ack::total       630443                       (Unspecified)
system.caches.L2Cache_Controller.Ack_all |       16196     13.20%     13.20% |       15741     12.83%     26.02% |       15029     12.25%     38.27% |       14571     11.87%     50.14% |       15285     12.45%     62.60% |       15290     12.46%     75.06% |       14966     12.19%     87.25% |       15645     12.75%    100.00% (Unspecified)
system.caches.L2Cache_Controller.Ack_all::total       122723                       (Unspecified)
system.caches.L2Cache_Controller.Unblock |       14121     12.96%     12.96% |       13766     12.63%     25.59% |       13287     12.19%     37.78% |       13293     12.20%     49.97% |       13470     12.36%     62.33% |       13600     12.48%     74.81% |       13886     12.74%     87.55% |       13574     12.45%    100.00% (Unspecified)
system.caches.L2Cache_Controller.Unblock::total       108997                       (Unspecified)
system.caches.L2Cache_Controller.Exclusive_Unblock |      741565     12.52%     12.52% |      740901     12.51%     25.04% |      736994     12.45%     37.48% |      739197     12.48%     49.96% |      739829     12.49%     62.46% |      742272     12.54%     74.99% |      740162     12.50%     87.49% |      740544     12.51%    100.00% (Unspecified)
system.caches.L2Cache_Controller.Exclusive_Unblock::total      5921464                       (Unspecified)
system.caches.L2Cache_Controller.NP.L1_GET_INSTR |        1999     13.28%     13.28% |        2031     13.49%     26.76% |        1880     12.49%     39.25% |        1467      9.74%     48.99% |        1886     12.53%     61.52% |        1817     12.07%     73.59% |        1888     12.54%     86.13% |        2089     13.87%    100.00% (Unspecified)
system.caches.L2Cache_Controller.NP.L1_GET_INSTR::total        15057                       (Unspecified)
system.caches.L2Cache_Controller.NP.L1_GETS |      726234     12.51%     12.51% |      726260     12.51%     25.03% |      724309     12.48%     37.51% |      725065     12.49%     50.00% |      725202     12.50%     62.50% |      725771     12.51%     75.01% |      725013     12.49%     87.50% |      725450     12.50%    100.00% (Unspecified)
system.caches.L2Cache_Controller.NP.L1_GETS::total      5803304                       (Unspecified)
system.caches.L2Cache_Controller.NP.L1_GETX |        4063     14.00%     14.00% |        3440     11.85%     25.85% |        2305      7.94%     33.79% |        3193     11.00%     44.79% |        3487     12.01%     56.80% |        4891     16.85%     73.65% |        3599     12.40%     86.05% |        4048     13.95%    100.00% (Unspecified)
system.caches.L2Cache_Controller.NP.L1_GETX::total        29026                       (Unspecified)
system.caches.L2Cache_Controller.NP.L1_PUTX_old |           0      0.00%      0.00% |           0      0.00%      0.00% |           0      0.00%      0.00% |           1     33.33%     33.33% |           1     33.33%     66.67% |           1     33.33%    100.00% |           0      0.00%    100.00% |           0      0.00%    100.00% (Unspecified)
system.caches.L2Cache_Controller.NP.L1_PUTX_old::total            3                       (Unspecified)
system.caches.L2Cache_Controller.SS.L1_GET_INSTR |        8865     14.41%     14.41% |        7566     12.30%     26.70% |        7519     12.22%     38.92% |        4896      7.96%     46.88% |        7713     12.54%     59.42% |        7510     12.21%     71.62% |        9259     15.05%     86.67% |        8203     13.33%    100.00% (Unspecified)
system.caches.L2Cache_Controller.SS.L1_GET_INSTR::total        61531                       (Unspecified)
system.caches.L2Cache_Controller.SS.L1_GETS |     3038363     12.52%     12.52% |     3037745     12.52%     25.03% |     3033247     12.50%     37.53% |     3033738     12.50%     50.03% |     3039578     12.52%     62.55% |     3032361     12.49%     75.05% |     3027787     12.47%     87.52% |     3028721     12.48%    100.00% (Unspecified)
system.caches.L2Cache_Controller.SS.L1_GETS::total     24271540                       (Unspecified)
system.caches.L2Cache_Controller.SS.L1_GETX |          38     51.35%     51.35% |           0      0.00%     51.35% |           0      0.00%     51.35% |           0      0.00%     51.35% |           2      2.70%     54.05% |           0      0.00%     54.05% |          32     43.24%     97.30% |           2      2.70%    100.00% (Unspecified)
system.caches.L2Cache_Controller.SS.L1_GETX::total           74                       (Unspecified)
system.caches.L2Cache_Controller.SS.L1_UPGRADE |        1427     12.16%     12.16% |        1434     12.22%     24.38% |        1408     12.00%     36.37% |        1401     11.94%     48.31% |        1454     12.39%     60.70% |        1404     11.96%     72.66% |        1754     14.94%     87.60% |        1455     12.40%    100.00% (Unspecified)
system.caches.L2Cache_Controller.SS.L1_UPGRADE::total        11737                       (Unspecified)
system.caches.L2Cache_Controller.SS.L1_PUTX |           0      0.00%      0.00% |           1     50.00%     50.00% |           0      0.00%     50.00% |           0      0.00%     50.00% |           1     50.00%    100.00% |           0      0.00%    100.00% |           0      0.00%    100.00% |           0      0.00%    100.00% (Unspecified)
system.caches.L2Cache_Controller.SS.L1_PUTX::total            2                       (Unspecified)
system.caches.L2Cache_Controller.SS.L2_Replacement |        1039     14.10%     14.10% |         947     12.85%     26.95% |         860     11.67%     38.62% |         853     11.57%     50.19% |         920     12.48%     62.67% |         898     12.18%     74.86% |         972     13.19%     88.05% |         881     11.95%    100.00% (Unspecified)
system.caches.L2Cache_Controller.SS.L2_Replacement::total         7370                       (Unspecified)
system.caches.L2Cache_Controller.SS.L2_Replacement_clean |       11813     13.28%     13.28% |       11464     12.89%     26.17% |       11019     12.39%     38.55% |       10460     11.76%     50.31% |       10938     12.30%     62.61% |       11030     12.40%     75.01% |       10763     12.10%     87.11% |       11469     12.89%    100.00% (Unspecified)
system.caches.L2Cache_Controller.SS.L2_Replacement_clean::total        88956                       (Unspecified)
system.caches.L2Cache_Controller.M.L1_GET_INSTR |           6     23.08%     23.08% |           4     15.38%     38.46% |           3     11.54%     50.00% |           1      3.85%     53.85% |           2      7.69%     61.54% |           2      7.69%     69.23% |           4     15.38%     84.62% |           4     15.38%    100.00% (Unspecified)
system.caches.L2Cache_Controller.M.L1_GET_INSTR::total           26                       (Unspecified)
system.caches.L2Cache_Controller.M.L1_GETS |        9926     12.75%     12.75% |        9861     12.67%     25.42% |        9393     12.07%     37.49% |        9649     12.40%     49.88% |        9738     12.51%     62.39% |        9936     12.76%     75.16% |        9601     12.33%     87.49% |        9738     12.51%    100.00% (Unspecified)
system.caches.L2Cache_Controller.M.L1_GETS::total        77842                       (Unspecified)
system.caches.L2Cache_Controller.M.L1_GETX |         365     16.94%     16.94% |         279     12.95%     29.88% |          30      1.39%     31.28% |         180      8.35%     39.63% |         232     10.77%     50.39% |         510     23.67%     74.06% |         235     10.90%     84.97% |         324     15.03%    100.00% (Unspecified)
system.caches.L2Cache_Controller.M.L1_GETX::total         2155                       (Unspecified)
system.caches.L2Cache_Controller.M.L2_Replacement |       17303     12.73%     12.73% |       16458     12.11%     24.83% |       15412     11.34%     36.17% |       16744     12.32%     48.49% |       16620     12.23%     60.71% |       18466     13.58%     74.29% |       17070     12.56%     86.85% |       17876     13.15%    100.00% (Unspecified)
system.caches.L2Cache_Controller.M.L2_Replacement::total       135949                       (Unspecified)
system.caches.L2Cache_Controller.M.L2_Replacement_clean |      698595     12.50%     12.50% |      699377     12.52%     25.02% |      697910     12.49%     37.51% |      698232     12.50%     50.01% |      698493     12.50%     62.51% |      698495     12.50%     75.01% |      698283     12.50%     87.51% |      697866     12.49%    100.00% (Unspecified)
system.caches.L2Cache_Controller.M.L2_Replacement_clean::total      5587251                       (Unspecified)
system.caches.L2Cache_Controller.MT.L1_GET_INSTR |           0      0.00%      0.00% |           1     33.33%     33.33% |           1     33.33%     66.67% |           0      0.00%     66.67% |           0      0.00%     66.67% |           0      0.00%     66.67% |           0      0.00%     66.67% |           1     33.33%    100.00% (Unspecified)
system.caches.L2Cache_Controller.MT.L1_GET_INSTR::total            3                       (Unspecified)
system.caches.L2Cache_Controller.MT.L1_GETS |       14121     12.96%     12.96% |       13765     12.63%     25.58% |       13286     12.19%     37.77% |       13293     12.20%     49.97% |       13470     12.36%     62.33% |       13600     12.48%     74.81% |       13886     12.74%     87.55% |       13573     12.45%    100.00% (Unspecified)
system.caches.L2Cache_Controller.MT.L1_GETS::total       108994                       (Unspecified)
system.caches.L2Cache_Controller.MT.L1_GETX |          44     46.81%     46.81% |          15     15.96%     62.77% |           3      3.19%     65.96% |           1      1.06%     67.02% |           4      4.26%     71.28% |          11     11.70%     82.98% |           9      9.57%     92.55% |           7      7.45%    100.00% (Unspecified)
system.caches.L2Cache_Controller.MT.L1_GETX::total           94                       (Unspecified)
system.caches.L2Cache_Controller.MT.L1_PUTX |      723618     12.51%     12.51% |      723439     12.51%     25.02% |      720199     12.45%     37.48% |      722248     12.49%     49.97% |      722532     12.49%     62.46% |      724818     12.53%     75.00% |      722627     12.50%     87.49% |      723237     12.51%    100.00% (Unspecified)
system.caches.L2Cache_Controller.MT.L1_PUTX::total      5782718                       (Unspecified)
system.caches.L2Cache_Controller.MT.L2_Replacement |          26     13.76%     13.76% |          14      7.41%     21.16% |           7      3.70%     24.87% |          31     16.40%     41.27% |          21     11.11%     52.38% |          32     16.93%     69.31% |          32     16.93%     86.24% |          26     13.76%    100.00% (Unspecified)
system.caches.L2Cache_Controller.MT.L2_Replacement::total          189                       (Unspecified)
system.caches.L2Cache_Controller.MT.L2_Replacement_clean |        3520     12.72%     12.72% |        3471     12.54%     25.26% |        3286     11.87%     37.14% |        3405     12.30%     49.44% |        3583     12.95%     62.39% |        3558     12.86%     75.25% |        3380     12.21%     87.46% |        3469     12.54%    100.00% (Unspecified)
system.caches.L2Cache_Controller.MT.L2_Replacement_clean::total        27672                       (Unspecified)
system.caches.L2Cache_Controller.M_I.L1_GET_INSTR |           2      1.22%      1.22% |           1      0.61%      1.83% |           0      0.00%      1.83% |           0      0.00%      1.83% |           0      0.00%      1.83% |           0      0.00%      1.83% |           0      0.00%      1.83% |         161     98.17%    100.00% (Unspecified)
system.caches.L2Cache_Controller.M_I.L1_GET_INSTR::total          164                       (Unspecified)
system.caches.L2Cache_Controller.M_I.L1_GETS |          33     39.29%     39.29% |          14     16.67%     55.95% |           5      5.95%     61.90% |           5      5.95%     67.86% |           9     10.71%     78.57% |           2      2.38%     80.95% |           9     10.71%     91.67% |           7      8.33%    100.00% (Unspecified)
system.caches.L2Cache_Controller.M_I.L1_GETS::total           84                       (Unspecified)
system.caches.L2Cache_Controller.M_I.L1_GETX |          11     33.33%     33.33% |           3      9.09%     42.42% |           0      0.00%     42.42% |           0      0.00%     42.42% |           3      9.09%     51.52% |          14     42.42%     93.94% |           2      6.06%    100.00% |           0      0.00%    100.00% (Unspecified)
system.caches.L2Cache_Controller.M_I.L1_GETX::total           33                       (Unspecified)
system.caches.L2Cache_Controller.M_I.Mem_Ack |      732296     12.52%     12.52% |      731730     12.51%     25.04% |      728494     12.46%     37.50% |      729725     12.48%     49.98% |      730575     12.49%     62.47% |      732478     12.53%     75.00% |      730500     12.49%     87.49% |      731587     12.51%    100.00% (Unspecified)
system.caches.L2Cache_Controller.M_I.Mem_Ack::total      5847385                       (Unspecified)
system.caches.L2Cache_Controller.MT_I.WB_Data |           8     11.27%     11.27% |           3      4.23%     15.49% |           2      2.82%     18.31% |          11     15.49%     33.80% |           5      7.04%     40.85% |          15     21.13%     61.97% |          14     19.72%     81.69% |          13     18.31%    100.00% (Unspecified)
system.caches.L2Cache_Controller.MT_I.WB_Data::total           71                       (Unspecified)
system.caches.L2Cache_Controller.MT_I.Ack_all |          18     15.25%     15.25% |          11      9.32%     24.58% |           5      4.24%     28.81% |          20     16.95%     45.76% |          16     13.56%     59.32% |          17     14.41%     73.73% |          18     15.25%     88.98% |          13     11.02%    100.00% (Unspecified)
system.caches.L2Cache_Controller.MT_I.Ack_all::total          118                       (Unspecified)
system.caches.L2Cache_Controller.MCT_I.L1_PUTX_old |           0      0.00%      0.00% |           0      0.00%      0.00% |           0      0.00%      0.00% |           1     33.33%     33.33% |           1     33.33%     66.67% |           1     33.33%    100.00% |           0      0.00%    100.00% |           0      0.00%    100.00% (Unspecified)
system.caches.L2Cache_Controller.MCT_I.L1_PUTX_old::total            3                       (Unspecified)
system.caches.L2Cache_Controller.MCT_I.WB_Data |         194     13.96%     13.96% |         152     10.94%     24.89% |         141     10.14%     35.04% |         166     11.94%     46.98% |         171     12.30%     59.28% |         212     15.25%     74.53% |         167     12.01%     86.55% |         187     13.45%    100.00% (Unspecified)
system.caches.L2Cache_Controller.MCT_I.WB_Data::total         1390                       (Unspecified)
system.caches.L2Cache_Controller.MCT_I.WB_Data_clean |           0      0.00%      0.00% |           0      0.00%      0.00% |           0      0.00%      0.00% |           1     33.33%     33.33% |           1     33.33%     66.67% |           1     33.33%    100.00% |           0      0.00%    100.00% |           0      0.00%    100.00% (Unspecified)
system.caches.L2Cache_Controller.MCT_I.WB_Data_clean::total            3                       (Unspecified)
system.caches.L2Cache_Controller.MCT_I.Ack_all |        3326     12.66%     12.66% |        3319     12.63%     25.29% |        3145     11.97%     37.25% |        3238     12.32%     49.58% |        3411     12.98%     62.56% |        3345     12.73%     75.28% |        3213     12.23%     87.51% |        3282     12.49%    100.00% (Unspecified)
system.caches.L2Cache_Controller.MCT_I.Ack_all::total        26279                       (Unspecified)
system.caches.L2Cache_Controller.I_I.L1_GET_INSTR |           0      0.00%      0.00% |           0      0.00%      0.00% |           0      0.00%      0.00% |           0      0.00%      0.00% |           0      0.00%      0.00% |           0      0.00%      0.00% |           0      0.00%      0.00% |           3    100.00%    100.00% (Unspecified)
system.caches.L2Cache_Controller.I_I.L1_GET_INSTR::total            3                       (Unspecified)
system.caches.L2Cache_Controller.I_I.L1_GETS |           0      0.00%      0.00% |           0      0.00%      0.00% |           1     25.00%     25.00% |           1     25.00%     50.00% |           1     25.00%     75.00% |           0      0.00%     75.00% |           0      0.00%     75.00% |           1     25.00%    100.00% (Unspecified)
system.caches.L2Cache_Controller.I_I.L1_GETS::total            4                       (Unspecified)
system.caches.L2Cache_Controller.I_I.Ack |       77182     13.29%     13.29% |       74233     12.78%     26.07% |       71668     12.34%     38.41% |       68207     11.74%     50.15% |       71534     12.32%     62.46% |       72688     12.51%     74.98% |       71026     12.23%     87.20% |       74328     12.80%    100.00% (Unspecified)
system.caches.L2Cache_Controller.I_I.Ack::total       580866                       (Unspecified)
system.caches.L2Cache_Controller.I_I.Ack_all |       11813     13.28%     13.28% |       11464     12.89%     26.17% |       11019     12.39%     38.55% |       10460     11.76%     50.31% |       10938     12.30%     62.61% |       11030     12.40%     75.01% |       10763     12.10%     87.11% |       11469     12.89%    100.00% (Unspecified)
system.caches.L2Cache_Controller.I_I.Ack_all::total        88956                       (Unspecified)
system.caches.L2Cache_Controller.S_I.Ack |        6969     14.06%     14.06% |        6375     12.86%     26.92% |        5798     11.69%     38.61% |        5783     11.66%     50.28% |        6171     12.45%     62.72% |        6044     12.19%     74.91% |        6521     13.15%     88.07% |        5916     11.93%    100.00% (Unspecified)
system.caches.L2Cache_Controller.S_I.Ack::total        49577                       (Unspecified)
system.caches.L2Cache_Controller.S_I.Ack_all |        1039     14.10%     14.10% |         947     12.85%     26.95% |         860     11.67%     38.62% |         853     11.57%     50.19% |         920     12.48%     62.67% |         898     12.18%     74.86% |         972     13.19%     88.05% |         881     11.95%    100.00% (Unspecified)
system.caches.L2Cache_Controller.S_I.Ack_all::total         7370                       (Unspecified)
system.caches.L2Cache_Controller.ISS.L1_GETS |         529     19.19%     19.19% |         387     14.04%     33.22% |         453     16.43%     49.66% |         291     10.55%     60.21% |         290     10.52%     70.73% |         249      9.03%     79.76% |          80      2.90%     82.66% |         478     17.34%    100.00% (Unspecified)
system.caches.L2Cache_Controller.ISS.L1_GETS::total         2757                       (Unspecified)
system.caches.L2Cache_Controller.ISS.L1_GETX |           0      0.00%      0.00% |           0      0.00%      0.00% |           0      0.00%      0.00% |           0      0.00%      0.00% |           0      0.00%      0.00% |           0      0.00%      0.00% |           1    100.00%    100.00% |           0      0.00%    100.00% (Unspecified)
system.caches.L2Cache_Controller.ISS.L1_GETX::total            1                       (Unspecified)
system.caches.L2Cache_Controller.ISS.Mem_Data |      725702     12.51%     12.51% |      725872     12.51%     25.02% |      723855     12.48%     37.50% |      724773     12.49%     50.00% |      724912     12.50%     62.50% |      725520     12.51%     75.00% |      724932     12.50%     87.50% |      724970     12.50%    100.00% (Unspecified)
system.caches.L2Cache_Controller.ISS.Mem_Data::total      5800536                       (Unspecified)
system.caches.L2Cache_Controller.IS.L1_GET_INSTR |        3431     13.08%     13.08% |        3781     14.42%     27.50% |        2988     11.40%     38.90% |        2417      9.22%     48.12% |        3034     11.57%     59.69% |        3589     13.69%     73.37% |        3302     12.59%     85.97% |        3680     14.03%    100.00% (Unspecified)
system.caches.L2Cache_Controller.IS.L1_GET_INSTR::total        26222                       (Unspecified)
system.caches.L2Cache_Controller.IS.L1_GETS |        1142     31.08%     31.08% |         544     14.81%     45.89% |         432     11.76%     57.65% |         480     13.06%     70.71% |         333      9.06%     79.78% |         479     13.04%     92.81% |          57      1.55%     94.37% |         207      5.63%    100.00% (Unspecified)
system.caches.L2Cache_Controller.IS.L1_GETS::total         3674                       (Unspecified)
system.caches.L2Cache_Controller.IS.Mem_Data |        2528     14.19%     14.19% |        2418     13.57%     27.76% |        2333     13.10%     40.86% |        1758      9.87%     50.73% |        2176     12.22%     62.94% |        2066     11.60%     74.54% |        1968     11.05%     85.59% |        2567     14.41%    100.00% (Unspecified)
system.caches.L2Cache_Controller.IS.Mem_Data::total        17814                       (Unspecified)
system.caches.L2Cache_Controller.IM.Mem_Data |        4063     14.00%     14.00% |        3440     11.85%     25.85% |        2305      7.94%     33.79% |        3193     11.00%     44.79% |        3487     12.01%     56.80% |        4891     16.85%     73.65% |        3599     12.40%     86.05% |        4048     13.95%    100.00% (Unspecified)
system.caches.L2Cache_Controller.IM.Mem_Data::total        29026                       (Unspecified)
system.caches.L2Cache_Controller.SS_MB.L1_GETS |           0      0.00%      0.00% |           0      0.00%      0.00% |           0      0.00%      0.00% |           0      0.00%      0.00% |           0      0.00%      0.00% |           0      0.00%      0.00% |         951     97.14%     97.14% |          28      2.86%    100.00% (Unspecified)
system.caches.L2Cache_Controller.SS_MB.L1_GETS::total          979                       (Unspecified)
system.caches.L2Cache_Controller.SS_MB.Exclusive_Unblock |        1465     12.40%     12.40% |        1434     12.14%     24.54% |        1408     11.92%     36.47% |        1401     11.86%     48.33% |        1456     12.33%     60.66% |        1404     11.89%     72.54% |        1786     15.12%     87.66% |        1457     12.34%    100.00% (Unspecified)
system.caches.L2Cache_Controller.SS_MB.Exclusive_Unblock::total        11811                       (Unspecified)
system.caches.L2Cache_Controller.MT_MB.L1_GETS |          81     54.36%     54.36% |           9      6.04%     60.40% |          21     14.09%     74.50% |           8      5.37%     79.87% |           6      4.03%     83.89% |           6      4.03%     87.92% |          10      6.71%     94.63% |           8      5.37%    100.00% (Unspecified)
system.caches.L2Cache_Controller.MT_MB.L1_GETS::total          149                       (Unspecified)
system.caches.L2Cache_Controller.MT_MB.L1_GETX |           6     50.00%     50.00% |           6     50.00%    100.00% |           0      0.00%    100.00% |           0      0.00%    100.00% |           0      0.00%    100.00% |           0      0.00%    100.00% |           0      0.00%    100.00% |           0      0.00%    100.00% (Unspecified)
system.caches.L2Cache_Controller.MT_MB.L1_GETX::total           12                       (Unspecified)
system.caches.L2Cache_Controller.MT_MB.Exclusive_Unblock |      740100     12.52%     12.52% |      739467     12.51%     25.04% |      735586     12.45%     37.48% |      737796     12.48%     49.97% |      738373     12.49%     62.46% |      740868     12.54%     75.00% |      738376     12.49%     87.49% |      739087     12.51%    100.00% (Unspecified)
system.caches.L2Cache_Controller.MT_MB.Exclusive_Unblock::total      5909653                       (Unspecified)
system.caches.L2Cache_Controller.MT_IIB.L1_GET_INSTR |           0      0.00%      0.00% |           0      0.00%      0.00% |           4     50.00%     50.00% |           0      0.00%     50.00% |           0      0.00%     50.00% |           0      0.00%     50.00% |           0      0.00%     50.00% |           4     50.00%    100.00% (Unspecified)
system.caches.L2Cache_Controller.MT_IIB.L1_GET_INSTR::total            8                       (Unspecified)
system.caches.L2Cache_Controller.MT_IIB.L1_GETS |         324     20.16%     20.16% |         181     11.26%     31.43% |          39      2.43%     33.85% |           7      0.44%     34.29% |          17      1.06%     35.35% |          10      0.62%     35.97% |         989     61.54%     97.51% |          40      2.49%    100.00% (Unspecified)
system.caches.L2Cache_Controller.MT_IIB.L1_GETS::total         1607                       (Unspecified)
system.caches.L2Cache_Controller.MT_IIB.L1_PUTX |           0      0.00%      0.00% |           1     50.00%     50.00% |           0      0.00%     50.00% |           0      0.00%     50.00% |           1     50.00%    100.00% |           0      0.00%    100.00% |           0      0.00%    100.00% |           0      0.00%    100.00% (Unspecified)
system.caches.L2Cache_Controller.MT_IIB.L1_PUTX::total            2                       (Unspecified)
system.caches.L2Cache_Controller.MT_IIB.WB_Data |        1060     12.81%     12.81% |        1006     12.16%     24.98% |         969     11.71%     36.69% |         959     11.59%     48.28% |        1026     12.40%     60.69% |         921     11.13%     71.82% |        1386     16.76%     88.58% |         945     11.42%    100.00% (Unspecified)
system.caches.L2Cache_Controller.MT_IIB.WB_Data::total         8272                       (Unspecified)
system.caches.L2Cache_Controller.MT_IIB.WB_Data_clean |       13055     12.96%     12.96% |       12758     12.67%     25.63% |       12314     12.23%     37.86% |       12333     12.25%     50.11% |       12443     12.36%     62.46% |       12675     12.59%     75.05% |       12498     12.41%     87.46% |       12627     12.54%    100.00% (Unspecified)
system.caches.L2Cache_Controller.MT_IIB.WB_Data_clean::total       100703                       (Unspecified)
system.caches.L2Cache_Controller.MT_IIB.Unblock |           6     27.27%     27.27% |           2      9.09%     36.36% |           4     18.18%     54.55% |           1      4.55%     59.09% |           1      4.55%     63.64% |           4     18.18%     81.82% |           2      9.09%     90.91% |           2      9.09%    100.00% (Unspecified)
system.caches.L2Cache_Controller.MT_IIB.Unblock::total           22                       (Unspecified)
system.caches.L2Cache_Controller.MT_IB.WB_Data |           1      8.33%      8.33% |           0      0.00%      8.33% |           3     25.00%     33.33% |           1      8.33%     41.67% |           1      8.33%     50.00% |           2     16.67%     66.67% |           2     16.67%     83.33% |           2     16.67%    100.00% (Unspecified)
system.caches.L2Cache_Controller.MT_IB.WB_Data::total           12                       (Unspecified)
system.caches.L2Cache_Controller.MT_IB.WB_Data_clean |           5     50.00%     50.00% |           2     20.00%     70.00% |           1     10.00%     80.00% |           0      0.00%     80.00% |           0      0.00%     80.00% |           2     20.00%    100.00% |           0      0.00%    100.00% |           0      0.00%    100.00% (Unspecified)
system.caches.L2Cache_Controller.MT_IB.WB_Data_clean::total           10                       (Unspecified)
system.caches.L2Cache_Controller.MT_SB.L1_GET_INSTR |           0      0.00%      0.00% |           0      0.00%      0.00% |           1    100.00%    100.00% |           0      0.00%    100.00% |           0      0.00%    100.00% |           0      0.00%    100.00% |           0      0.00%    100.00% |           0      0.00%    100.00% (Unspecified)
system.caches.L2Cache_Controller.MT_SB.L1_GET_INSTR::total            1                       (Unspecified)
system.caches.L2Cache_Controller.MT_SB.L1_GETS |          60     44.44%     44.44% |          52     38.52%     82.96% |           1      0.74%     83.70% |           0      0.00%     83.70% |           0      0.00%     83.70% |           0      0.00%     83.70% |          19     14.07%     97.78% |           3      2.22%    100.00% (Unspecified)
system.caches.L2Cache_Controller.MT_SB.L1_GETS::total          135                       (Unspecified)
system.caches.L2Cache_Controller.MT_SB.L1_UPGRADE |           0      0.00%      0.00% |           0      0.00%      0.00% |           0      0.00%      0.00% |           0      0.00%      0.00% |           0      0.00%      0.00% |           0      0.00%      0.00% |         132    100.00%    100.00% |           0      0.00%    100.00% (Unspecified)
system.caches.L2Cache_Controller.MT_SB.L1_UPGRADE::total          132                       (Unspecified)
system.caches.L2Cache_Controller.MT_SB.Unblock |       14115     12.95%     12.95% |       13764     12.63%     25.58% |       13283     12.19%     37.77% |       13292     12.20%     49.97% |       13469     12.36%     62.33% |       13596     12.48%     74.81% |       13884     12.74%     87.55% |       13572     12.45%    100.00% (Unspecified)
system.caches.L2Cache_Controller.MT_SB.Unblock::total       108975                       (Unspecified)
system.caches.RequestType.LD.latency_hist_seqr::bucket_size         1024                       (Unspecified)
system.caches.RequestType.LD.latency_hist_seqr::max_bucket        10239                       (Unspecified)
system.caches.RequestType.LD.latency_hist_seqr::samples     67293899                       (Unspecified)
system.caches.RequestType.LD.latency_hist_seqr::mean    63.714566                       (Unspecified)
system.caches.RequestType.LD.latency_hist_seqr::gmean     4.744826                       (Unspecified)
system.caches.RequestType.LD.latency_hist_seqr::stdev   204.048291                       (Unspecified)
system.caches.RequestType.LD.latency_hist_seqr |    66937014     99.47%     99.47% |      323565      0.48%     99.95% |       29870      0.04%     99.99% |        2709      0.00%    100.00% |         585      0.00%    100.00% |         126      0.00%    100.00% |          24      0.00%    100.00% |           5      0.00%    100.00% |           1      0.00%    100.00% |           0      0.00%    100.00% (Unspecified)
system.caches.RequestType.LD.latency_hist_seqr::total     67293899                       (Unspecified)
system.caches.RequestType.LD.hit_latency_hist_seqr::bucket_size            1                       (Unspecified)
system.caches.RequestType.LD.hit_latency_hist_seqr::max_bucket            9                       (Unspecified)
system.caches.RequestType.LD.hit_latency_hist_seqr::samples     37025800                       (Unspecified)
system.caches.RequestType.LD.hit_latency_hist_seqr::mean     1.006209                       (Unspecified)
system.caches.RequestType.LD.hit_latency_hist_seqr::gmean     1.004313                       (Unspecified)
system.caches.RequestType.LD.hit_latency_hist_seqr::stdev     0.078553                       (Unspecified)
system.caches.RequestType.LD.hit_latency_hist_seqr |           0      0.00%      0.00% |    36795901     99.38%     99.38% |      229899      0.62%    100.00% |           0      0.00%    100.00% |           0      0.00%    100.00% |           0      0.00%    100.00% |           0      0.00%    100.00% |           0      0.00%    100.00% |           0      0.00%    100.00% |           0      0.00%    100.00% (Unspecified)
system.caches.RequestType.LD.hit_latency_hist_seqr::total     37025800                       (Unspecified)
system.caches.RequestType.LD.miss_latency_hist_seqr::bucket_size         1024                       (Unspecified)
system.caches.RequestType.LD.miss_latency_hist_seqr::max_bucket        10239                       (Unspecified)
system.caches.RequestType.LD.miss_latency_hist_seqr::samples     30268099                       (Unspecified)
system.caches.RequestType.LD.miss_latency_hist_seqr::mean   140.423284                       (Unspecified)
system.caches.RequestType.LD.miss_latency_hist_seqr::gmean    31.705023                       (Unspecified)
system.caches.RequestType.LD.miss_latency_hist_seqr::stdev   286.133795                       (Unspecified)
system.caches.RequestType.LD.miss_latency_hist_seqr |    29911214     98.82%     98.82% |      323565      1.07%     99.89% |       29870      0.10%     99.99% |        2709      0.01%    100.00% |         585      0.00%    100.00% |         126      0.00%    100.00% |          24      0.00%    100.00% |           5      0.00%    100.00% |           1      0.00%    100.00% |           0      0.00%    100.00% (Unspecified)
system.caches.RequestType.LD.miss_latency_hist_seqr::total     30268099                       (Unspecified)
system.caches.RequestType.ST.latency_hist_seqr::bucket_size          512                       (Unspecified)
system.caches.RequestType.ST.latency_hist_seqr::max_bucket         5119                       (Unspecified)
system.caches.RequestType.ST.latency_hist_seqr::samples       785517                       (Unspecified)
system.caches.RequestType.ST.latency_hist_seqr::mean    21.609380                       (Unspecified)
system.caches.RequestType.ST.latency_hist_seqr::gmean     1.265183                       (Unspecified)
system.caches.RequestType.ST.latency_hist_seqr::stdev   137.582626                       (Unspecified)
system.caches.RequestType.ST.latency_hist_seqr |      768388     97.82%     97.82% |       14425      1.84%     99.66% |        1311      0.17%     99.82% |         900      0.11%     99.94% |         382      0.05%     99.99% |          51      0.01%     99.99% |          58      0.01%    100.00% |           0      0.00%    100.00% |           1      0.00%    100.00% |           1      0.00%    100.00% (Unspecified)
system.caches.RequestType.ST.latency_hist_seqr::total       785517                       (Unspecified)
system.caches.RequestType.ST.hit_latency_hist_seqr::bucket_size          128                       (Unspecified)
system.caches.RequestType.ST.hit_latency_hist_seqr::max_bucket         1279                       (Unspecified)
system.caches.RequestType.ST.hit_latency_hist_seqr::samples       750388                       (Unspecified)
system.caches.RequestType.ST.hit_latency_hist_seqr::mean     1.014325                       (Unspecified)
system.caches.RequestType.ST.hit_latency_hist_seqr::gmean     1.002934                       (Unspecified)
system.caches.RequestType.ST.hit_latency_hist_seqr::stdev     2.263746                       (Unspecified)
system.caches.RequestType.ST.hit_latency_hist_seqr |      750371    100.00%    100.00% |           0      0.00%    100.00% |          10      0.00%    100.00% |           2      0.00%    100.00% |           3      0.00%    100.00% |           1      0.00%    100.00% |           0      0.00%    100.00% |           1      0.00%    100.00% |           0      0.00%    100.00% |           0      0.00%    100.00% (Unspecified)
system.caches.RequestType.ST.hit_latency_hist_seqr::total       750388                       (Unspecified)
system.caches.RequestType.ST.miss_latency_hist_seqr::bucket_size          512                       (Unspecified)
[...]
system.o3Cpu7.iew.predictedNotTakenIncorrect         1202                       # Number of branches that were predicted not taken incorrectly (Count)
system.o3Cpu7.iew.branchMispredicts             17177                       # Number of branch mispredicts detected at execute (Count)
system.o3Cpu7.iew.instsToCommit              54277996                       # Cumulative count of insts sent to commit (Count)
system.o3Cpu7.iew.writebackCount             54273326                       # Cumulative count of insts written-back (Count)
system.o3Cpu7.iew.producerInst               43522876                       # Number of instructions producing a value (Count)
system.o3Cpu7.iew.consumerInst               56405959                       # Number of instructions consuming a value (Count)
system.o3Cpu7.iew.wbRate                     0.160504                       # Insts written-back per cycle ((Count/Cycle))
system.o3Cpu7.iew.wbFanout                   0.771601                       # Average fanout of values written-back ((Count/Count))
system.o3Cpu7.interrupts.clk_domain.clock         3200                       # Clock period in ticks (Tick)
system.o3Cpu7.lsq0.forwLoads                     5838                       # Number of loads that had data forwarded from stores (Count)
system.o3Cpu7.lsq0.squashedLoads                44066                       # Number of loads squashed (Count)
system.o3Cpu7.lsq0.ignoredResponses                 4                       # Number of memory responses ignored because the instruction is squashed (Count)
system.o3Cpu7.lsq0.memOrderViolation               52                       # Number of memory ordering violations (Count)
system.o3Cpu7.lsq0.squashedStores                1823                       # Number of stores squashed (Count)
system.o3Cpu7.lsq0.rescheduledLoads                63                       # Number of loads that were rescheduled (Count)
system.o3Cpu7.lsq0.blockedByCache                   0                       # Number of times an access to memory failed due to the cache being blocked (Count)
system.o3Cpu7.lsq0.loadToUse::samples        11664773                       # Distribution of cycle latency between the first time a load is issued and its completion (Unspecified)
system.o3Cpu7.lsq0.loadToUse::mean         226.405433                       # Distribution of cycle latency between the first time a load is issued and its completion (Unspecified)
system.o3Cpu7.lsq0.loadToUse::stdev        345.675866                       # Distribution of cycle latency between the first time a load is issued and its completion (Unspecified)
system.o3Cpu7.lsq0.loadToUse::0-9             4568968     39.17%     39.17% # Distribution of cycle latency between the first time a load is issued and its completion (Unspecified)
system.o3Cpu7.lsq0.loadToUse::10-19           2316358     19.86%     59.03% # Distribution of cycle latency between the first time a load is issued and its completion (Unspecified)
system.o3Cpu7.lsq0.loadToUse::20-29            597108      5.12%     64.15% # Distribution of cycle latency between the first time a load is issued and its completion (Unspecified)
system.o3Cpu7.lsq0.loadToUse::30-39            178274      1.53%     65.67% # Distribution of cycle latency between the first time a load is issued and its completion (Unspecified)
system.o3Cpu7.lsq0.loadToUse::40-49              9644      0.08%     65.76% # Distribution of cycle latency between the first time a load is issued and its completion (Unspecified)
system.o3Cpu7.lsq0.loadToUse::50-59              1969      0.02%     65.77% # Distribution of cycle latency between the first time a load is issued and its completion (Unspecified)
system.o3Cpu7.lsq0.loadToUse::60-69              3045      0.03%     65.80% # Distribution of cycle latency between the first time a load is issued and its completion (Unspecified)
system.o3Cpu7.lsq0.loadToUse::70-79              2428      0.02%     65.82% # Distribution of cycle latency between the first time a load is issued and its completion (Unspecified)
system.o3Cpu7.lsq0.loadToUse::80-89              3494      0.03%     65.85% # Distribution of cycle latency between the first time a load is issued and its completion (Unspecified)
system.o3Cpu7.lsq0.loadToUse::90-99              2677      0.02%     65.87% # Distribution of cycle latency between the first time a load is issued and its completion (Unspecified)
system.o3Cpu7.lsq0.loadToUse::100-109            1990      0.02%     65.89% # Distribution of cycle latency between the first time a load is issued and its completion (Unspecified)
system.o3Cpu7.lsq0.loadToUse::110-119            1946      0.02%     65.91% # Distribution of cycle latency between the first time a load is issued and its completion (Unspecified)
system.o3Cpu7.lsq0.loadToUse::120-129            1311      0.01%     65.92% # Distribution of cycle latency between the first time a load is issued and its completion (Unspecified)
system.o3Cpu7.lsq0.loadToUse::130-139            2303      0.02%     65.94% # Distribution of cycle latency between the first time a load is issued and its completion (Unspecified)
system.o3Cpu7.lsq0.loadToUse::140-149            1878      0.02%     65.95% # Distribution of cycle latency between the first time a load is issued and its completion (Unspecified)
system.o3Cpu7.lsq0.loadToUse::150-159            1756      0.02%     65.97% # Distribution of cycle latency between the first time a load is issued and its completion (Unspecified)
system.o3Cpu7.lsq0.loadToUse::160-169            1733      0.01%     65.98% # Distribution of cycle latency between the first time a load is issued and its completion (Unspecified)
system.o3Cpu7.lsq0.loadToUse::170-179            1160      0.01%     65.99% # Distribution of cycle latency between the first time a load is issued and its completion (Unspecified)
system.o3Cpu7.lsq0.loadToUse::180-189            1998      0.02%     66.01% # Distribution of cycle latency between the first time a load is issued and its completion (Unspecified)
system.o3Cpu7.lsq0.loadToUse::190-199            1812      0.02%     66.03% # Distribution of cycle latency between the first time a load is issued and its completion (Unspecified)
system.o3Cpu7.lsq0.loadToUse::200-209            1412      0.01%     66.04% # Distribution of cycle latency between the first time a load is issued and its completion (Unspecified)
system.o3Cpu7.lsq0.loadToUse::210-219            1398      0.01%     66.05% # Distribution of cycle latency between the first time a load is issued and its completion (Unspecified)
system.o3Cpu7.lsq0.loadToUse::220-229            1273      0.01%     66.06% # Distribution of cycle latency between the first time a load is issued and its completion (Unspecified)
system.o3Cpu7.lsq0.loadToUse::230-239            2974      0.03%     66.09% # Distribution of cycle latency between the first time a load is issued and its completion (Unspecified)
system.o3Cpu7.lsq0.loadToUse::240-249            3422      0.03%     66.12% # Distribution of cycle latency between the first time a load is issued and its completion (Unspecified)
system.o3Cpu7.lsq0.loadToUse::250-259            2526      0.02%     66.14% # Distribution of cycle latency between the first time a load is issued and its completion (Unspecified)
system.o3Cpu7.lsq0.loadToUse::260-269            3619      0.03%     66.17% # Distribution of cycle latency between the first time a load is issued and its completion (Unspecified)
system.o3Cpu7.lsq0.loadToUse::270-279            3428      0.03%     66.20% # Distribution of cycle latency between the first time a load is issued and its completion (Unspecified)
system.o3Cpu7.lsq0.loadToUse::280-289            6043      0.05%     66.25% # Distribution of cycle latency between the first time a load is issued and its completion (Unspecified)
system.o3Cpu7.lsq0.loadToUse::290-299            3603      0.03%     66.28% # Distribution of cycle latency between the first time a load is issued and its completion (Unspecified)
system.o3Cpu7.lsq0.loadToUse::overflows       3933223     33.72%    100.00% # Distribution of cycle latency between the first time a load is issued and its completion (Unspecified)
system.o3Cpu7.lsq0.loadToUse::min_value             2                       # Distribution of cycle latency between the first time a load is issued and its completion (Unspecified)
system.o3Cpu7.lsq0.loadToUse::max_value          8479                       # Distribution of cycle latency between the first time a load is issued and its completion (Unspecified)
system.o3Cpu7.lsq0.loadToUse::total          11664773                       # Distribution of cycle latency between the first time a load is issued and its completion (Unspecified)
system.o3Cpu7.mmu.dtb.rdAccesses             11689928                       # TLB accesses on read requests (Count)
system.o3Cpu7.mmu.dtb.wrAccesses                99705                       # TLB accesses on write requests (Count)
system.o3Cpu7.mmu.dtb.rdMisses                   4681                       # TLB misses on read requests (Count)
system.o3Cpu7.mmu.dtb.wrMisses                   1013                       # TLB misses on write requests (Count)
system.o3Cpu7.mmu.dtb.walker.power_state.pwrStateResidencyTicks::UNDEFINED  70032158400                       # Cumulative time (in ticks) in various power states (Tick)
system.o3Cpu7.mmu.itb.rdAccesses                    0                       # TLB accesses on read requests (Count)
system.o3Cpu7.mmu.itb.wrAccesses              7603886                       # TLB accesses on write requests (Count)
system.o3Cpu7.mmu.itb.rdMisses                      0                       # TLB misses on read requests (Count)
system.o3Cpu7.mmu.itb.wrMisses                    160                       # TLB misses on write requests (Count)
system.o3Cpu7.mmu.itb.walker.power_state.pwrStateResidencyTicks::UNDEFINED  70032158400                       # Cumulative time (in ticks) in various power states (Tick)
system.o3Cpu7.power_state.numTransitions            4                       # Number of power state transitions (Count)
system.o3Cpu7.power_state.ticksClkGated::samples            2                       # Distribution of time spent in the clock gated state (Tick)
system.o3Cpu7.power_state.ticksClkGated::mean    696433100                       # Distribution of time spent in the clock gated state (Tick)
system.o3Cpu7.power_state.ticksClkGated::stdev 52012936.346451                       # Distribution of time spent in the clock gated state (Tick)
system.o3Cpu7.power_state.ticksClkGated::1000-5e+10            2    100.00%    100.00% # Distribution of time spent in the clock gated state (Tick)
system.o3Cpu7.power_state.ticksClkGated::min_value    659654400                       # Distribution of time spent in the clock gated state (Tick)
system.o3Cpu7.power_state.ticksClkGated::max_value    733211800                       # Distribution of time spent in the clock gated state (Tick)
system.o3Cpu7.power_state.ticksClkGated::total            2                       # Distribution of time spent in the clock gated state (Tick)
system.o3Cpu7.power_state.pwrStateResidencyTicks::ON  16031071000                       # Cumulative time (in ticks) in various power states (Tick)
system.o3Cpu7.power_state.pwrStateResidencyTicks::CLK_GATED   1392866200                       # Cumulative time (in ticks) in various power states (Tick)
system.o3Cpu7.power_state.pwrStateResidencyTicks::OFF  52608221200                       # Cumulative time (in ticks) in various power states (Tick)
system.o3Cpu7.rename.squashCycles               17307                       # Number of cycles rename is squashing (Cycle)
system.o3Cpu7.rename.idleCycles               5824555                       # Number of cycles rename is idle (Cycle)
system.o3Cpu7.rename.blockCycles            146443980                       # Number of cycles rename is blocking (Cycle)
system.o3Cpu7.rename.serializeStallCycles       490047                       # count of cycles rename stalled for serializing inst (Cycle)
system.o3Cpu7.rename.runCycles               14376730                       # Number of cycles rename is running (Cycle)
system.o3Cpu7.rename.unblockCycles          170440472                       # Number of cycles rename is unblocking (Cycle)
system.o3Cpu7.rename.renamedInsts            54448898                       # Number of instructions processed by rename (Count)
system.o3Cpu7.rename.ROBFullEvents            2146750                       # Number of times rename has blocked due to ROB full (Count)
system.o3Cpu7.rename.IQFullEvents             2228940                       # Number of times rename has blocked due to IQ full (Count)
system.o3Cpu7.rename.LQFullEvents           168545591                       # Number of times rename has blocked due to LQ full (Count)
system.o3Cpu7.rename.SQFullEvents              206086                       # Number of times rename has blocked due to SQ full (Count)
system.o3Cpu7.rename.fullRegistersEvents            8                       # Number of times there has been no free registers (Count)
system.o3Cpu7.rename.renamedOperands         93695297                       # Number of destination operands rename has renamed (Count)
system.o3Cpu7.rename.lookups                166117179                       # Number of register rename lookups that rename has made (Count)
system.o3Cpu7.rename.intLookups              54171164                       # Number of integer rename lookups (Count)
system.o3Cpu7.rename.fpLookups               22818851                       # Number of floating rename lookups (Count)
system.o3Cpu7.rename.committedMaps           93348452                       # Number of HB maps that are committed (Count)
system.o3Cpu7.rename.undoneMaps                346717                       # Number of HB maps that are undone due to squashing (Count)
system.o3Cpu7.rename.serializing                 2774                       # count of serializing insts renamed (Count)
system.o3Cpu7.rename.tempSerializing             2720                       # count of temporary serializing insts renamed (Count)
system.o3Cpu7.rename.skidInsts                6481447                       # count of insts added to the skid buffer (Count)
system.o3Cpu7.rob.reads                     379755327                       # The number of ROB reads (Count)
system.o3Cpu7.rob.writes                    108779909                       # The number of ROB writes (Count)
system.o3Cpu7.thread_0.numInsts              29484805                       # Number of Instructions committed (Count)
system.o3Cpu7.thread_0.numOps                54234901                       # Number of Ops committed (Count)
system.o3Cpu7.thread_0.numMemRefs                   0                       # Number of Memory References (Count)
system.pc.bad_addr.power_state.pwrStateResidencyTicks::UNDEFINED  70032158400                       # Cumulative time (in ticks) in various power states (Tick)
system.pc.com_1.power_state.pwrStateResidencyTicks::UNDEFINED  70032158400                       # Cumulative time (in ticks) in various power states (Tick)
system.pc.default_bus.power_state.pwrStateResidencyTicks::UNDEFINED  70032158400                       # Cumulative time (in ticks) in various power states (Tick)
system.pc.empty_isa.power_state.pwrStateResidencyTicks::UNDEFINED  70032158400                       # Cumulative time (in ticks) in various power states (Tick)
system.pc.fake_com_2.power_state.pwrStateResidencyTicks::UNDEFINED  70032158400                       # Cumulative time (in ticks) in various power states (Tick)
system.pc.fake_com_3.power_state.pwrStateResidencyTicks::UNDEFINED  70032158400                       # Cumulative time (in ticks) in various power states (Tick)
system.pc.fake_com_4.power_state.pwrStateResidencyTicks::UNDEFINED  70032158400                       # Cumulative time (in ticks) in various power states (Tick)
system.pc.fake_floppy.power_state.pwrStateResidencyTicks::UNDEFINED  70032158400                       # Cumulative time (in ticks) in various power states (Tick)
system.pc.pci_host.power_state.pwrStateResidencyTicks::UNDEFINED  70032158400                       # Cumulative time (in ticks) in various power states (Tick)
system.pc.south_bridge.cmos.power_state.pwrStateResidencyTicks::UNDEFINED  70032158400                       # Cumulative time (in ticks) in various power states (Tick)
system.pc.south_bridge.dma1.power_state.pwrStateResidencyTicks::UNDEFINED  70032158400                       # Cumulative time (in ticks) in various power states (Tick)
system.pc.south_bridge.ide.disks0.IdeDisk.dmaReadFullPages            0                       # Number of full page size DMA reads (not PRD). (Count)
system.pc.south_bridge.ide.disks0.IdeDisk.dmaReadBytes            0                       # Number of bytes transfered via DMA reads (not PRD). (Byte)
system.pc.south_bridge.ide.disks0.IdeDisk.dmaReadTxs            0                       # Number of DMA read transactions (not PRD). (Count)
system.pc.south_bridge.ide.disks0.IdeDisk.dmaWriteFullPages            0                       # Number of full page size DMA writes. (Count)
system.pc.south_bridge.ide.disks0.IdeDisk.dmaWriteBytes            0                       # Number of bytes transfered via DMA writes. (Byte)
system.pc.south_bridge.ide.disks0.IdeDisk.dmaWriteTxs            0                       # Number of DMA write transactions. (Count)
system.pc.south_bridge.ide.disks1.IdeDisk.dmaReadFullPages            0                       # Number of full page size DMA reads (not PRD). (Count)
system.pc.south_bridge.ide.disks1.IdeDisk.dmaReadBytes            0                       # Number of bytes transfered via DMA reads (not PRD). (Byte)
system.pc.south_bridge.ide.disks1.IdeDisk.dmaReadTxs            0                       # Number of DMA read transactions (not PRD). (Count)
system.pc.south_bridge.ide.disks1.IdeDisk.dmaWriteFullPages            0                       # Number of full page size DMA writes. (Count)
system.pc.south_bridge.ide.disks1.IdeDisk.dmaWriteBytes            0                       # Number of bytes transfered via DMA writes. (Byte)
system.pc.south_bridge.ide.disks1.IdeDisk.dmaWriteTxs            0                       # Number of DMA write transactions. (Count)
system.pc.south_bridge.ide.power_state.pwrStateResidencyTicks::UNDEFINED  70032158400                       # Cumulative time (in ticks) in various power states (Tick)
system.pc.south_bridge.io_apic.power_state.pwrStateResidencyTicks::UNDEFINED  70032158400                       # Cumulative time (in ticks) in various power states (Tick)
system.pc.south_bridge.keyboard.power_state.pwrStateResidencyTicks::UNDEFINED  70032158400                       # Cumulative time (in ticks) in various power states (Tick)
system.pc.south_bridge.pic1.power_state.pwrStateResidencyTicks::UNDEFINED  70032158400                       # Cumulative time (in ticks) in various power states (Tick)
system.pc.south_bridge.pic2.power_state.pwrStateResidencyTicks::UNDEFINED  70032158400                       # Cumulative time (in ticks) in various power states (Tick)
system.pc.south_bridge.pit.power_state.pwrStateResidencyTicks::UNDEFINED  70032158400                       # Cumulative time (in ticks) in various power states (Tick)
system.pc.south_bridge.speaker.power_state.pwrStateResidencyTicks::UNDEFINED  70032158400                       # Cumulative time (in ticks) in various power states (Tick)
system.workload.inst.arm                            0                       # number of arm instructions executed (Count)
system.workload.inst.quiesce                        0                       # number of quiesce instructions executed (Count)

---------- End Simulation Statistics   ----------
