
---------- Begin Simulation Statistics ----------
simSeconds                                   0.039276                       # Number of seconds simulated (Second)
simTicks                                  39275963250                       # Number of ticks simulated (Tick)
finalTick                                108088656064200                       # Number of ticks from beginning of simulation (restored from checkpoints and never reset) (Tick)
simFreq                                  1000000000000                       # The number of ticks per simulated second ((Tick/Second))
hostSeconds                                   6354.39                       # Real time elapsed on the host (Second)
hostTickRate                                  6180923                       # The number of ticks simulated per host second (ticks/s) ((Tick/Second))
hostMemory                                   20077596                       # Number of bytes of host memory used (Byte)
simInsts                                    231061119                       # Number of instructions simulated (Count)
simOps                                      425943255                       # Number of ops (including micro ops) simulated (Count)
hostInstRate                                    36362                       # Simulator instruction rate (inst/s) ((Count/Second))
hostOpRate                                      67031                       # Simulator op (including micro ops) rate (op/s) ((Count/Second))
system.caches.delayHistogram::bucket_size           32                       # delay histogram for all message (Unspecified)
system.caches.delayHistogram::max_bucket          319                       # delay histogram for all message (Unspecified)
system.caches.delayHistogram::samples        60815021                       # delay histogram for all message (Unspecified)
system.caches.delayHistogram::mean           2.390288                       # delay histogram for all message (Unspecified)
system.caches.delayHistogram::stdev          7.400432                       # delay histogram for all message (Unspecified)
system.caches.delayHistogram             |    59618952     98.03%     98.03% |     1189016      1.96%     99.99% |        6958      0.01%    100.00% |          93      0.00%    100.00% |           0      0.00%    100.00% |           0      0.00%    100.00% |           1      0.00%    100.00% |           0      0.00%    100.00% |           1      0.00%    100.00% |           0      0.00%    100.00% # delay histogram for all message (Unspecified)
system.caches.delayHistogram::total          60815021                       # delay histogram for all message (Unspecified)
system.caches.m_outstandReqHistSeqr::bucket_size            2                       (Unspecified)
system.caches.m_outstandReqHistSeqr::max_bucket           19                       (Unspecified)
system.caches.m_outstandReqHistSeqr::samples     50342428                       (Unspecified)
system.caches.m_outstandReqHistSeqr::mean    12.268075                       (Unspecified)
system.caches.m_outstandReqHistSeqr::gmean    10.548831                       (Unspecified)
system.caches.m_outstandReqHistSeqr::stdev     4.333644                       (Unspecified)
system.caches.m_outstandReqHistSeqr      |     3261690      6.48%      6.48% |     1106528      2.20%      8.68% |      745831      1.48%     10.16% |      714589      1.42%     11.58% |     3936085      7.82%     19.40% |     8035099     15.96%     35.36% |     6986719     13.88%     49.24% |     8706479     17.29%     66.53% |    16849408     33.47%    100.00% |           0      0.00%    100.00% (Unspecified)
system.caches.m_outstandReqHistSeqr::total     50342428                       (Unspecified)
system.caches.m_latencyHistSeqr::bucket_size         1024                       (Unspecified)
system.caches.m_latencyHistSeqr::max_bucket        10239                       (Unspecified)
system.caches.m_latencyHistSeqr::samples     50346116                       (Unspecified)
system.caches.m_latencyHistSeqr::mean       89.728400                       (Unspecified)
system.caches.m_latencyHistSeqr::gmean       3.985247                       (Unspecified)
system.caches.m_latencyHistSeqr::stdev     264.258491                       (Unspecified)
system.caches.m_latencyHistSeqr          |    49669315     98.66%     98.66% |      592858      1.18%     99.83% |       81623      0.16%    100.00% |        2268      0.00%    100.00% |          51      0.00%    100.00% |           0      0.00%    100.00% |           1      0.00%    100.00% |           0      0.00%    100.00% |           0      0.00%    100.00% |           0      0.00%    100.00% (Unspecified)
system.caches.m_latencyHistSeqr::total       50346116                       (Unspecified)
system.caches.m_hitLatencyHistSeqr::bucket_size          256                       (Unspecified)
system.caches.m_hitLatencyHistSeqr::max_bucket         2559                       (Unspecified)
system.caches.m_hitLatencyHistSeqr::samples     34318897                       (Unspecified)
system.caches.m_hitLatencyHistSeqr::mean     1.122829                       (Unspecified)
system.caches.m_hitLatencyHistSeqr::gmean     1.086808                       (Unspecified)
system.caches.m_hitLatencyHistSeqr::stdev     0.890474                       (Unspecified)
system.caches.m_hitLatencyHistSeqr       |    34318840    100.00%    100.00% |          22      0.00%    100.00% |          25      0.00%    100.00% |           5      0.00%    100.00% |           4      0.00%    100.00% |           1      0.00%    100.00% |           0      0.00%    100.00% |           0      0.00%    100.00% |           0      0.00%    100.00% |           0      0.00%    100.00% (Unspecified)
system.caches.m_hitLatencyHistSeqr::total     34318897                       (Unspecified)
system.caches.m_missLatencyHistSeqr::bucket_size         1024                       (Unspecified)
system.caches.m_missLatencyHistSeqr::max_bucket        10239                       (Unspecified)
system.caches.m_missLatencyHistSeqr::samples     16027219                       (Unspecified)
system.caches.m_missLatencyHistSeqr::mean   279.458476                       (Unspecified)
system.caches.m_missLatencyHistSeqr::gmean    64.385645                       (Unspecified)
system.caches.m_missLatencyHistSeqr::stdev   408.110083                       (Unspecified)
system.caches.m_missLatencyHistSeqr      |    15350423     95.78%     95.78% |      592853      3.70%     99.48% |       81623      0.51%     99.99% |        2268      0.01%    100.00% |          51      0.00%    100.00% |           0      0.00%    100.00% |           1      0.00%    100.00% |           0      0.00%    100.00% |           0      0.00%    100.00% |           0      0.00%    100.00% (Unspecified)
system.caches.m_missLatencyHistSeqr::total     16027219                       (Unspecified)
system.caches.delayVCHist.vnet_0::bucket_size           32                       # delay histogram for vnet_0 (Unspecified)
system.caches.delayVCHist.vnet_0::max_bucket          319                       # delay histogram for vnet_0 (Unspecified)
system.caches.delayVCHist.vnet_0::samples     27473161                       # delay histogram for vnet_0 (Unspecified)
system.caches.delayVCHist.vnet_0::mean       0.141254                       # delay histogram for vnet_0 (Unspecified)
system.caches.delayVCHist.vnet_0::stdev      0.969716                       # delay histogram for vnet_0 (Unspecified)
system.caches.delayVCHist.vnet_0         |    27472939    100.00%    100.00% |         216      0.00%    100.00% |           3      0.00%    100.00% |           1      0.00%    100.00% |           0      0.00%    100.00% |           0      0.00%    100.00% |           1      0.00%    100.00% |           0      0.00%    100.00% |           1      0.00%    100.00% |           0      0.00%    100.00% # delay histogram for vnet_0 (Unspecified)
system.caches.delayVCHist.vnet_0::total      27473161                       # delay histogram for vnet_0 (Unspecified)
system.caches.delayVCHist.vnet_1::bucket_size           16                       # delay histogram for vnet_1 (Unspecified)
system.caches.delayVCHist.vnet_1::max_bucket          159                       # delay histogram for vnet_1 (Unspecified)
system.caches.delayVCHist.vnet_1::samples     33156873                       # delay histogram for vnet_1 (Unspecified)
system.caches.delayVCHist.vnet_1::mean       4.266782                       # delay histogram for vnet_1 (Unspecified)
system.caches.delayVCHist.vnet_1::stdev      9.587906                       # delay histogram for vnet_1 (Unspecified)
system.caches.delayVCHist.vnet_1         |    29330133     88.46%     88.46% |     2630893      7.93%     96.39% |      967221      2.92%     99.31% |      221579      0.67%     99.98% |        6549      0.02%    100.00% |         406      0.00%    100.00% |          76      0.00%    100.00% |          16      0.00%    100.00% |           0      0.00%    100.00% |           0      0.00%    100.00% # delay histogram for vnet_1 (Unspecified)
system.caches.delayVCHist.vnet_1::total      33156873                       # delay histogram for vnet_1 (Unspecified)
system.caches.delayVCHist.vnet_2::bucket_size            2                       # delay histogram for vnet_2 (Unspecified)
system.caches.delayVCHist.vnet_2::max_bucket           19                       # delay histogram for vnet_2 (Unspecified)
system.caches.delayVCHist.vnet_2::samples       184987                       # delay histogram for vnet_2 (Unspecified)
system.caches.delayVCHist.vnet_2::mean       0.062437                       # delay histogram for vnet_2 (Unspecified)
system.caches.delayVCHist.vnet_2::stdev      0.354222                       # delay histogram for vnet_2 (Unspecified)
system.caches.delayVCHist.vnet_2         |      179268     96.91%     96.91% |        5695      3.08%     99.99% |           6      0.00%     99.99% |           6      0.00%     99.99% |          10      0.01%    100.00% |           2      0.00%    100.00% |           0      0.00%    100.00% |           0      0.00%    100.00% |           0      0.00%    100.00% |           0      0.00%    100.00% # delay histogram for vnet_2 (Unspecified)
system.caches.delayVCHist.vnet_2::total        184987                       # delay histogram for vnet_2 (Unspecified)
system.caches.L1Cache_Controller.Load    |     5921249     12.14%     12.14% |     6120364     12.55%     24.68% |     6139664     12.59%     37.27% |     6112163     12.53%     49.80% |     6150402     12.61%     62.41% |     6150534     12.61%     75.02% |     6151559     12.61%     87.63% |     6035466     12.37%    100.00% (Unspecified)
system.caches.L1Cache_Controller.Load::total     48781401                       (Unspecified)
system.caches.L1Cache_Controller.Ifetch  |      114218     13.57%     13.57% |      103165     12.25%     25.82% |      103213     12.26%     38.08% |      103981     12.35%     50.43% |      104329     12.39%     62.82% |      104537     12.42%     75.24% |      104032     12.36%     87.59% |      104462     12.41%    100.00% (Unspecified)
system.caches.L1Cache_Controller.Ifetch::total       841937                       (Unspecified)
system.caches.L1Cache_Controller.Store   |      100683     13.93%     13.93% |       88926     12.30%     26.23% |       88785     12.28%     38.52% |       88966     12.31%     50.82% |       88848     12.29%     63.12% |       88790     12.28%     75.40% |       88731     12.28%     87.68% |       89068     12.32%    100.00% (Unspecified)
system.caches.L1Cache_Controller.Store::total       722797                       (Unspecified)
system.caches.L1Cache_Controller.Inv     |       21509     13.08%     13.08% |       20328     12.36%     25.44% |       20309     12.35%     37.79% |       20274     12.33%     50.12% |       20292     12.34%     62.46% |       20294     12.34%     74.80% |       20286     12.34%     87.14% |       21145     12.86%    100.00% (Unspecified)
system.caches.L1Cache_Controller.Inv::total       164437                       (Unspecified)
system.caches.L1Cache_Controller.L1_Replacement |     2023102     12.72%     12.72% |     1978866     12.44%     25.15% |     1985095     12.48%     37.63% |     1985249     12.48%     50.11% |     1997179     12.55%     62.66% |     1996894     12.55%     75.21% |     1989042     12.50%     87.71% |     1954962     12.29%    100.00% (Unspecified)
system.caches.L1Cache_Controller.L1_Replacement::total     15910389                       (Unspecified)
system.caches.L1Cache_Controller.Fwd_GETX |           8      8.60%      8.60% |          13     13.98%     22.58% |          13     13.98%     36.56% |          10     10.75%     47.31% |          11     11.83%     59.14% |          12     12.90%     72.04% |          12     12.90%     84.95% |          14     15.05%    100.00% (Unspecified)
system.caches.L1Cache_Controller.Fwd_GETX::total           93                       (Unspecified)
system.caches.L1Cache_Controller.Fwd_GETS |        2814     13.76%     13.76% |        2553     12.48%     26.24% |        2520     12.32%     38.55% |        2487     12.16%     50.71% |        2514     12.29%     63.00% |        2491     12.18%     75.18% |        2525     12.34%     87.52% |        2553     12.48%    100.00% (Unspecified)
system.caches.L1Cache_Controller.Fwd_GETS::total        20457                       (Unspecified)
system.caches.L1Cache_Controller.Data    |         124     92.54%     92.54% |           1      0.75%     93.28% |           2      1.49%     94.78% |           0      0.00%     94.78% |           2      1.49%     96.27% |           3      2.24%     98.51% |           2      1.49%    100.00% |           0      0.00%    100.00% (Unspecified)
system.caches.L1Cache_Controller.Data::total          134                       (Unspecified)
system.caches.L1Cache_Controller.Data_Exclusive |      718132     12.64%     12.64% |      707746     12.46%     25.09% |      709812     12.49%     37.58% |      709527     12.49%     50.07% |      714055     12.57%     62.64% |      713488     12.56%     75.19% |      710812     12.51%     87.70% |      698777     12.30%    100.00% (Unspecified)
system.caches.L1Cache_Controller.Data_Exclusive::total      5682349                       (Unspecified)
system.caches.L1Cache_Controller.DataS_fromL1 |        2823     13.80%     13.80% |        2565     12.54%     26.34% |        2523     12.33%     38.67% |        2544     12.44%     51.11% |        2205     10.78%     61.89% |        2551     12.47%     74.36% |        2544     12.44%     86.79% |        2702     13.21%    100.00% (Unspecified)
system.caches.L1Cache_Controller.DataS_fromL1::total        20457                       (Unspecified)
system.caches.L1Cache_Controller.Data_all_Acks |     1307930     12.69%     12.69% |     1281812     12.44%     25.13% |     1285947     12.48%     37.61% |     1286325     12.48%     50.09% |     1293923     12.56%     62.65% |     1294090     12.56%     75.20% |     1288688     12.51%     87.71% |     1266503     12.29%    100.00% (Unspecified)
system.caches.L1Cache_Controller.Data_all_Acks::total     10305218                       (Unspecified)
system.caches.L1Cache_Controller.Ack     |       17659     13.29%     13.29% |       16472     12.40%     25.68% |       16458     12.39%     38.07% |       16465     12.39%     50.46% |       16462     12.39%     62.85% |       16455     12.38%     75.23% |       16457     12.38%     87.62% |       16456     12.38%    100.00% (Unspecified)
system.caches.L1Cache_Controller.Ack::total       132884                       (Unspecified)
system.caches.L1Cache_Controller.Ack_all |        2635     13.73%     13.73% |        2364     12.32%     26.04% |        2366     12.33%     38.37% |        2368     12.34%     50.71% |        2366     12.33%     63.03% |        2365     12.32%     75.35% |        2366     12.33%     87.68% |        2365     12.32%    100.00% (Unspecified)
system.caches.L1Cache_Controller.Ack_all::total        19195                       (Unspecified)
system.caches.L1Cache_Controller.WB_Ack  |      733655     12.87%     12.87% |      708156     12.42%     25.30% |      710152     12.46%     37.76% |      709858     12.45%     50.21% |      714471     12.54%     62.75% |      713889     12.53%     75.27% |      711109     12.48%     87.75% |      698165     12.25%    100.00% (Unspecified)
system.caches.L1Cache_Controller.WB_Ack::total      5699455                       (Unspecified)
system.caches.L1Cache_Controller.NP.Load |     2018206     12.66%     12.66% |     1983629     12.45%     25.11% |     1989808     12.48%     37.59% |     1989942     12.49%     50.08% |     2001869     12.56%     62.64% |     2001584     12.56%     75.20% |     1993741     12.51%     87.70% |     1959733     12.30%    100.00% (Unspecified)
system.caches.L1Cache_Controller.NP.Load::total     15938512                       (Unspecified)
system.caches.L1Cache_Controller.NP.Ifetch |        2062     24.92%     24.92% |         813      9.82%     34.74% |         887     10.72%     45.46% |         918     11.09%     56.56% |         901     10.89%     67.44% |         906     10.95%     78.39% |         898     10.85%     89.24% |         890     10.76%    100.00% (Unspecified)
system.caches.L1Cache_Controller.NP.Ifetch::total         8275                       (Unspecified)
system.caches.L1Cache_Controller.NP.Store |        3636     14.81%     14.81% |        3018     12.29%     27.09% |        2991     12.18%     39.27% |        2985     12.15%     51.43% |        3001     12.22%     63.65% |        3002     12.22%     75.87% |        2995     12.20%     88.07% |        2931     11.93%    100.00% (Unspecified)
system.caches.L1Cache_Controller.NP.Store::total        24559                       (Unspecified)
system.caches.L1Cache_Controller.NP.Inv  |       11912     12.65%     12.65% |       11659     12.38%     25.03% |       11756     12.48%     37.52% |       11768     12.50%     50.01% |       11767     12.50%     62.51% |       11682     12.41%     74.92% |       11819     12.55%     87.47% |       11799     12.53%    100.00% (Unspecified)
system.caches.L1Cache_Controller.NP.Inv::total        94162                       (Unspecified)
system.caches.L1Cache_Controller.I.Load  |        1632     12.44%     12.44% |        1782     13.58%     26.02% |        1712     13.05%     39.07% |        1676     12.77%     51.84% |        1525     11.62%     63.46% |        1746     13.31%     76.77% |        1527     11.64%     88.41% |        1521     11.59%    100.00% (Unspecified)
system.caches.L1Cache_Controller.I.Load::total        13121                       (Unspecified)
system.caches.L1Cache_Controller.I.Ifetch |        3470     14.66%     14.66% |        2878     12.16%     26.82% |        2884     12.19%     39.01% |        2872     12.14%     51.15% |        2886     12.20%     63.34% |        2890     12.21%     75.55% |        2882     12.18%     87.73% |        2903     12.27%    100.00% (Unspecified)
system.caches.L1Cache_Controller.I.Ifetch::total        23665                       (Unspecified)
system.caches.L1Cache_Controller.I.Store |           5     11.11%     11.11% |           6     13.33%     24.44% |           5     11.11%     35.56% |           5     11.11%     46.67% |           5     11.11%     57.78% |           6     13.33%     71.11% |           6     13.33%     84.44% |           7     15.56%    100.00% (Unspecified)
system.caches.L1Cache_Controller.I.Store::total           45                       (Unspecified)
system.caches.L1Cache_Controller.I.L1_Replacement |        3839     12.63%     12.63% |        3662     12.04%     24.67% |        3614     11.89%     36.56% |        3611     11.88%     48.43% |        3763     12.38%     60.81% |        3627     11.93%     72.74% |        3711     12.21%     84.94% |        4578     15.06%    100.00% (Unspecified)
system.caches.L1Cache_Controller.I.L1_Replacement::total        30405                       (Unspecified)
system.caches.L1Cache_Controller.S.Load  |     2538035     11.66%     11.66% |     2796306     12.85%     24.51% |     2789885     12.82%     37.32% |     2771220     12.73%     50.05% |     2793709     12.83%     62.89% |     2801312     12.87%     75.76% |     2806483     12.89%     88.65% |     2470916     11.35%    100.00% (Unspecified)
system.caches.L1Cache_Controller.S.Load::total     21767866                       (Unspecified)
system.caches.L1Cache_Controller.S.Ifetch |      108686     13.42%     13.42% |       99474     12.28%     25.70% |       99442     12.28%     37.98% |      100191     12.37%     50.35% |      100542     12.41%     62.76% |      100741     12.44%     75.19% |      100252     12.38%     87.57% |      100669     12.43%    100.00% (Unspecified)
system.caches.L1Cache_Controller.S.Ifetch::total       809997                       (Unspecified)
system.caches.L1Cache_Controller.S.Store |        2511     13.17%     13.17% |        2363     12.40%     25.57% |        2364     12.40%     37.97% |        2368     12.42%     50.40% |        2364     12.40%     62.80% |        2362     12.39%     75.19% |        2364     12.40%     87.59% |        2365     12.41%    100.00% (Unspecified)
system.caches.L1Cache_Controller.S.Store::total        19061                       (Unspecified)
system.caches.L1Cache_Controller.S.Inv   |        9541     13.78%     13.78% |        8658     12.50%     26.28% |        8524     12.31%     38.59% |        8482     12.25%     50.84% |        8508     12.29%     63.12% |        8600     12.42%     75.54% |        8450     12.20%     87.75% |        8486     12.25%    100.00% (Unspecified)
system.caches.L1Cache_Controller.S.Inv::total        69249                       (Unspecified)
system.caches.L1Cache_Controller.S.L1_Replacement |     1285607     12.63%     12.63% |     1267048     12.45%     25.07% |     1271328     12.49%     37.56% |     1271780     12.49%     50.05% |     1278944     12.56%     62.62% |     1279377     12.57%     75.18% |     1274222     12.52%     87.70% |     1252218     12.30%    100.00% (Unspecified)
system.caches.L1Cache_Controller.S.L1_Replacement::total     10180524                       (Unspecified)
system.caches.L1Cache_Controller.E.Load  |     1299574     12.23%     12.23% |     1284785     12.09%     24.33% |     1304651     12.28%     36.61% |     1296192     12.20%     48.81% |     1299918     12.24%     61.04% |     1292758     12.17%     73.21% |     1296813     12.21%     85.41% |     1549558     14.59%    100.00% (Unspecified)
system.caches.L1Cache_Controller.E.Load::total     10624249                       (Unspecified)
system.caches.L1Cache_Controller.E.Store |        5414     13.02%     13.02% |        5146     12.37%     25.39% |        5172     12.44%     37.83% |        5177     12.45%     50.28% |        5174     12.44%     62.72% |        5168     12.43%     75.15% |        5165     12.42%     87.57% |        5169     12.43%    100.00% (Unspecified)
system.caches.L1Cache_Controller.E.Store::total        41585                       (Unspecified)
system.caches.L1Cache_Controller.E.Inv   |          56      5.63%      5.63% |           8      0.80%      6.44% |          23      2.31%      8.75% |          21      2.11%     10.87% |          15      1.51%     12.37% |          10      1.01%     13.38% |          15      1.51%     14.89% |         846     85.11%    100.00% (Unspecified)
system.caches.L1Cache_Controller.E.Inv::total          994                       (Unspecified)
system.caches.L1Cache_Controller.E.L1_Replacement |      708458     12.61%     12.61% |      700001     12.46%     25.07% |      702018     12.50%     37.57% |      701724     12.49%     50.06% |      706334     12.57%     62.64% |      705718     12.56%     75.20% |      702988     12.51%     87.71% |      690098     12.29%    100.00% (Unspecified)
system.caches.L1Cache_Controller.E.L1_Replacement::total      5617339                       (Unspecified)
system.caches.L1Cache_Controller.E.Fwd_GETX |           0      0.00%      0.00% |           1     10.00%     10.00% |           1     10.00%     20.00% |           1     10.00%     30.00% |           1     10.00%     40.00% |           1     10.00%     50.00% |           1     10.00%     60.00% |           4     40.00%    100.00% (Unspecified)
system.caches.L1Cache_Controller.E.Fwd_GETX::total           10                       (Unspecified)
system.caches.L1Cache_Controller.E.Fwd_GETS |         196     13.45%     13.45% |         229     15.72%     29.17% |         176     12.08%     41.25% |         138      9.47%     50.72% |         157     10.78%     61.50% |         175     12.01%     73.51% |         170     11.67%     85.18% |         216     14.82%    100.00% (Unspecified)
system.caches.L1Cache_Controller.E.Fwd_GETS::total         1457                       (Unspecified)
system.caches.L1Cache_Controller.M.Load  |       63802     14.58%     14.58% |       53862     12.31%     26.89% |       53608     12.25%     39.13% |       53133     12.14%     51.27% |       53381     12.20%     63.47% |       53134     12.14%     75.61% |       52995     12.11%     87.72% |       53738     12.28%    100.00% (Unspecified)
system.caches.L1Cache_Controller.M.Load::total       437653                       (Unspecified)
system.caches.L1Cache_Controller.M.Store |       89117     13.98%     13.98% |       78393     12.30%     26.27% |       78253     12.27%     38.55% |       78431     12.30%     50.85% |       78304     12.28%     63.13% |       78252     12.27%     75.41% |       78201     12.27%     87.67% |       78596     12.33%    100.00% (Unspecified)
system.caches.L1Cache_Controller.M.Store::total       637547                       (Unspecified)
system.caches.L1Cache_Controller.M.Inv   |           0      0.00%      0.00% |           0      0.00%      0.00% |           0      0.00%      0.00% |           1      7.69%      7.69% |           0      0.00%      7.69% |           0      0.00%      7.69% |           0      0.00%      7.69% |          12     92.31%    100.00% (Unspecified)
system.caches.L1Cache_Controller.M.Inv::total           13                       (Unspecified)
system.caches.L1Cache_Controller.M.L1_Replacement |       25197     30.68%     30.68% |        8155      9.93%     40.61% |        8135      9.91%     50.52% |        8134      9.91%     60.43% |        8137      9.91%     70.34% |        8171      9.95%     80.29% |        8121      9.89%     90.18% |        8068      9.82%    100.00% (Unspecified)
system.caches.L1Cache_Controller.M.L1_Replacement::total        82118                       (Unspecified)
system.caches.L1Cache_Controller.M.Fwd_GETX |           8      9.64%      9.64% |          12     14.46%     24.10% |          12     14.46%     38.55% |           9     10.84%     49.40% |          10     12.05%     61.45% |          11     13.25%     74.70% |          11     13.25%     87.95% |          10     12.05%    100.00% (Unspecified)
system.caches.L1Cache_Controller.M.Fwd_GETX::total           83                       (Unspecified)
system.caches.L1Cache_Controller.M.Fwd_GETS |        2618     13.78%     13.78% |        2324     12.23%     26.01% |        2344     12.34%     38.35% |        2349     12.36%     50.71% |        2357     12.41%     63.12% |        2316     12.19%     75.31% |        2355     12.39%     87.70% |        2337     12.30%    100.00% (Unspecified)
system.caches.L1Cache_Controller.M.Fwd_GETS::total        19000                       (Unspecified)
system.caches.L1Cache_Controller.IS.Inv  |           0      0.00%      0.00% |           3     15.79%     15.79% |           6     31.58%     47.37% |           2     10.53%     57.89% |           2     10.53%     68.42% |           2     10.53%     78.95% |           2     10.53%     89.47% |           2     10.53%    100.00% (Unspecified)
system.caches.L1Cache_Controller.IS.Inv::total           19                       (Unspecified)
system.caches.L1Cache_Controller.IS.L1_Replacement |           1     33.33%     33.33% |           0      0.00%     33.33% |           0      0.00%     33.33% |           0      0.00%     33.33% |           1     33.33%     66.67% |           1     33.33%    100.00% |           0      0.00%    100.00% |           0      0.00%    100.00% (Unspecified)
system.caches.L1Cache_Controller.IS.L1_Replacement::total            3                       (Unspecified)
system.caches.L1Cache_Controller.IS.Data_Exclusive |      718132     12.64%     12.64% |      707746     12.46%     25.09% |      709812     12.49%     37.58% |      709527     12.49%     50.07% |      714055     12.57%     62.64% |      713488     12.56%     75.19% |      710812     12.51%     87.70% |      698777     12.30%    100.00% (Unspecified)
system.caches.L1Cache_Controller.IS.Data_Exclusive::total      5682349                       (Unspecified)
system.caches.L1Cache_Controller.IS.DataS_fromL1 |        2823     13.80%     13.80% |        2564     12.53%     26.33% |        2523     12.33%     38.67% |        2544     12.44%     51.10% |        2205     10.78%     61.88% |        2551     12.47%     74.35% |        2544     12.44%     86.79% |        2702     13.21%    100.00% (Unspecified)
system.caches.L1Cache_Controller.IS.DataS_fromL1::total        20456                       (Unspecified)
system.caches.L1Cache_Controller.IS.Data_all_Acks |     1304413     12.69%     12.69% |     1278787     12.44%     25.13% |     1282947     12.48%     37.61% |     1283333     12.48%     50.09% |     1290917     12.56%     62.65% |     1291083     12.56%     75.20% |     1285687     12.51%     87.71% |     1263563     12.29%    100.00% (Unspecified)
system.caches.L1Cache_Controller.IS.Data_all_Acks::total     10280730                       (Unspecified)
system.caches.L1Cache_Controller.IM.Data |         124     92.54%     92.54% |           1      0.75%     93.28% |           2      1.49%     94.78% |           0      0.00%     94.78% |           2      1.49%     96.27% |           3      2.24%     98.51% |           2      1.49%    100.00% |           0      0.00%    100.00% (Unspecified)
system.caches.L1Cache_Controller.IM.Data::total          134                       (Unspecified)
system.caches.L1Cache_Controller.IM.Data_all_Acks |        3517     14.37%     14.37% |        3023     12.35%     26.73% |        2994     12.24%     38.96% |        2990     12.22%     51.18% |        3004     12.28%     63.46% |        3005     12.28%     75.74% |        2999     12.26%     87.99% |        2938     12.01%    100.00% (Unspecified)
system.caches.L1Cache_Controller.IM.Data_all_Acks::total        24470                       (Unspecified)
system.caches.L1Cache_Controller.SM.Ack  |       17659     13.29%     13.29% |       16472     12.40%     25.68% |       16458     12.39%     38.07% |       16465     12.39%     50.46% |       16462     12.39%     62.85% |       16455     12.38%     75.23% |       16457     12.38%     87.62% |       16456     12.38%    100.00% (Unspecified)
system.caches.L1Cache_Controller.SM.Ack::total       132884                       (Unspecified)
system.caches.L1Cache_Controller.SM.Ack_all |        2635     13.73%     13.73% |        2364     12.32%     26.04% |        2366     12.33%     38.37% |        2368     12.34%     50.71% |        2366     12.33%     63.03% |        2365     12.32%     75.35% |        2366     12.33%     87.68% |        2365     12.32%    100.00% (Unspecified)
system.caches.L1Cache_Controller.SM.Ack_all::total        19195                       (Unspecified)
system.caches.L1Cache_Controller.IS_I.DataS_fromL1 |           0      0.00%      0.00% |           1    100.00%    100.00% |           0      0.00%    100.00% |           0      0.00%    100.00% |           0      0.00%    100.00% |           0      0.00%    100.00% |           0      0.00%    100.00% |           0      0.00%    100.00% (Unspecified)
system.caches.L1Cache_Controller.IS_I.DataS_fromL1::total            1                       (Unspecified)
system.caches.L1Cache_Controller.IS_I.Data_all_Acks |           0      0.00%      0.00% |           2     11.11%     11.11% |           6     33.33%     44.44% |           2     11.11%     55.56% |           2     11.11%     66.67% |           2     11.11%     77.78% |           2     11.11%     88.89% |           2     11.11%    100.00% (Unspecified)
system.caches.L1Cache_Controller.IS_I.Data_all_Acks::total           18                       (Unspecified)
system.caches.L1Cache_Controller.M_I.WB_Ack |      733655     12.87%     12.87% |      708156     12.42%     25.30% |      710152     12.46%     37.76% |      709858     12.45%     50.21% |      714471     12.54%     62.75% |      713889     12.53%     75.27% |      711109     12.48%     87.75% |      698165     12.25%    100.00% (Unspecified)
system.caches.L1Cache_Controller.M_I.WB_Ack::total      5699455                       (Unspecified)
system.caches.Directory_Controller.Fetch |        4946      0.09%      0.09% |     5683251     99.91%    100.00% (Unspecified)
system.caches.Directory_Controller.Fetch::total      5688197                       (Unspecified)
system.caches.Directory_Controller.Data  |          11      0.01%      0.01% |      139595     99.99%    100.00% (Unspecified)
system.caches.Directory_Controller.Data::total       139606                       (Unspecified)
system.caches.Directory_Controller.Memory_Data |        4946      0.09%      0.09% |     5683234     99.91%    100.00% (Unspecified)
system.caches.Directory_Controller.Memory_Data::total      5688180                       (Unspecified)
system.caches.Directory_Controller.Memory_Ack |          11      0.01%      0.01% |      139595     99.99%    100.00% (Unspecified)
system.caches.Directory_Controller.Memory_Ack::total       139606                       (Unspecified)
system.caches.Directory_Controller.CleanReplacement |        4889      0.09%      0.09% |     5412630     99.91%    100.00% (Unspecified)
system.caches.Directory_Controller.CleanReplacement::total      5417519                       (Unspecified)
system.caches.Directory_Controller.I.Fetch |        4946      0.09%      0.09% |     5683251     99.91%    100.00% (Unspecified)
system.caches.Directory_Controller.I.Fetch::total      5688197                       (Unspecified)
system.caches.Directory_Controller.M.Data |          11      0.01%      0.01% |      139595     99.99%    100.00% (Unspecified)
system.caches.Directory_Controller.M.Data::total       139606                       (Unspecified)
system.caches.Directory_Controller.M.CleanReplacement |        4889      0.09%      0.09% |     5412630     99.91%    100.00% (Unspecified)
system.caches.Directory_Controller.M.CleanReplacement::total      5417519                       (Unspecified)
system.caches.Directory_Controller.IM.Memory_Data |        4946      0.09%      0.09% |     5683234     99.91%    100.00% (Unspecified)
system.caches.Directory_Controller.IM.Memory_Data::total      5688180                       (Unspecified)
system.caches.Directory_Controller.MI.Memory_Ack |          11      0.01%      0.01% |      139595     99.99%    100.00% (Unspecified)
system.caches.Directory_Controller.MI.Memory_Ack::total       139606                       (Unspecified)
system.caches.L2Cache_Controller.L1_GET_INSTR |        4051     12.68%     12.68% |        4894     15.32%     28.01% |        3764     11.78%     39.79% |        3041      9.52%     49.31% |        3968     12.42%     61.73% |        4137     12.95%     74.69% |        3822     11.97%     86.65% |        4263     13.35%    100.00% (Unspecified)
system.caches.L2Cache_Controller.L1_GET_INSTR::total        31940                       (Unspecified)
system.caches.L2Cache_Controller.L1_GETS |     1998498     12.53%     12.53% |     1996881     12.52%     25.05% |     1994002     12.50%     37.55% |     1993784     12.50%     50.04% |     1993915     12.50%     62.54% |     1992471     12.49%     75.03% |     1990832     12.48%     87.51% |     1991842     12.49%    100.00% (Unspecified)
system.caches.L2Cache_Controller.L1_GETS::total     15952225                       (Unspecified)
system.caches.L2Cache_Controller.L1_GETX |        3475     14.10%     14.10% |        3016     12.24%     26.35% |        2190      8.89%     35.23% |        2794     11.34%     46.57% |        3000     12.18%     58.75% |        3721     15.10%     73.85% |        3071     12.46%     86.32% |        3371     13.68%    100.00% (Unspecified)
system.caches.L2Cache_Controller.L1_GETX::total        24638                       (Unspecified)
system.caches.L2Cache_Controller.L1_UPGRADE |        2369     12.40%     12.40% |        2391     12.52%     24.92% |        2353     12.32%     37.24% |        2351     12.31%     49.55% |        2386     12.49%     62.05% |        2360     12.36%     74.40% |        2518     13.18%     87.59% |        2371     12.41%    100.00% (Unspecified)
system.caches.L2Cache_Controller.L1_UPGRADE::total        19099                       (Unspecified)
system.caches.L2Cache_Controller.L1_PUTX |      712771     12.51%     12.51% |      712750     12.51%     25.01% |      711008     12.48%     37.49% |      712138     12.49%     49.98% |      712312     12.50%     62.48% |      713449     12.52%     75.00% |      712372     12.50%     87.50% |      712655     12.50%    100.00% (Unspecified)
system.caches.L2Cache_Controller.L1_PUTX::total      5699455                       (Unspecified)
system.caches.L2Cache_Controller.L2_Replacement |       17441     12.49%     12.49% |       17423     12.48%     24.97% |       17374     12.45%     37.42% |       17426     12.48%     49.90% |       17433     12.49%     62.39% |       17504     12.54%     74.93% |       17419     12.48%     87.41% |       17580     12.59%    100.00% (Unspecified)
system.caches.L2Cache_Controller.L2_Replacement::total       139600                       (Unspecified)
system.caches.L2Cache_Controller.L2_Replacement_clean |      677258     12.50%     12.50% |      677335     12.50%     25.00% |      677128     12.50%     37.50% |      677072     12.50%     50.00% |      677203     12.50%     62.50% |      677245     12.50%     75.00% |      677173     12.50%     87.50% |      677111     12.50%    100.00% (Unspecified)
system.caches.L2Cache_Controller.L2_Replacement_clean::total      5417525                       (Unspecified)
system.caches.L2Cache_Controller.Mem_Data |      711077     12.50%     12.50% |      711138     12.50%     25.00% |      710885     12.50%     37.50% |      710882     12.50%     50.00% |      711019     12.50%     62.50% |      711131     12.50%     75.00% |      710975     12.50%     87.50% |      711073     12.50%    100.00% (Unspecified)
system.caches.L2Cache_Controller.Mem_Data::total      5688180                       (Unspecified)
system.caches.L2Cache_Controller.Mem_Ack |      694699     12.50%     12.50% |      694758     12.50%     25.00% |      694502     12.50%     37.50% |      694498     12.50%     50.00% |      694636     12.50%     62.50% |      694749     12.50%     75.00% |      694592     12.50%     87.50% |      694691     12.50%    100.00% (Unspecified)
system.caches.L2Cache_Controller.Mem_Ack::total      5557125                       (Unspecified)
system.caches.L2Cache_Controller.WB_Data |        2426     12.76%     12.76% |        2372     12.48%     25.24% |        2323     12.22%     37.45% |        2335     12.28%     49.73% |        2371     12.47%     62.20% |        2327     12.24%     74.44% |        2506     13.18%     87.62% |        2353     12.38%    100.00% (Unspecified)
system.caches.L2Cache_Controller.WB_Data::total        19013                       (Unspecified)
system.caches.L2Cache_Controller.WB_Data_clean |         185     12.70%     12.70% |         178     12.22%     24.91% |         204     14.00%     38.92% |         171     11.74%     50.65% |         169     11.60%     62.25% |         187     12.83%     75.09% |         175     12.01%     87.10% |         188     12.90%    100.00% (Unspecified)
system.caches.L2Cache_Controller.WB_Data_clean::total         1457                       (Unspecified)
system.caches.L2Cache_Controller.Ack     |        3440     13.82%     13.82% |        3312     13.31%     27.13% |        3126     12.56%     39.69% |        2475      9.94%     49.63% |        3155     12.68%     62.30% |        3400     13.66%     75.96% |        3081     12.38%     88.34% |        2902     11.66%    100.00% (Unspecified)
system.caches.L2Cache_Controller.Ack::total        24891                       (Unspecified)
system.caches.L2Cache_Controller.Ack_all |         882     13.54%     13.54% |         863     13.25%     26.78% |         821     12.60%     39.39% |         723     11.10%     50.48% |         833     12.79%     63.27% |         814     12.49%     75.76% |         788     12.10%     87.86% |         791     12.14%    100.00% (Unspecified)
system.caches.L2Cache_Controller.Ack_all::total         6515                       (Unspecified)
system.caches.L2Cache_Controller.Unblock |        2611     12.76%     12.76% |        2547     12.45%     25.21% |        2526     12.35%     37.56% |        2504     12.24%     49.80% |        2538     12.41%     62.21% |        2513     12.28%     74.49% |        2679     13.10%     87.59% |        2539     12.41%    100.00% (Unspecified)
system.caches.L2Cache_Controller.Unblock::total        20457                       (Unspecified)
system.caches.L2Cache_Controller.Exclusive_Unblock |      716158     12.51%     12.51% |      716081     12.51%     25.01% |      714195     12.47%     37.49% |      715404     12.49%     49.98% |      715596     12.50%     62.48% |      716806     12.52%     75.00% |      715768     12.50%     87.50% |      716005     12.50%    100.00% (Unspecified)
system.caches.L2Cache_Controller.Exclusive_Unblock::total      5726013                       (Unspecified)
system.caches.L2Cache_Controller.NP.L1_GET_INSTR |         700     13.27%     13.27% |         699     13.25%     26.52% |         660     12.51%     39.03% |         576     10.92%     49.95% |         693     13.14%     63.09% |         684     12.97%     76.06% |         639     12.11%     88.17% |         624     11.83%    100.00% (Unspecified)
system.caches.L2Cache_Controller.NP.L1_GET_INSTR::total         5275                       (Unspecified)
system.caches.L2Cache_Controller.NP.L1_GETS |      708312     12.50%     12.50% |      708383     12.50%     25.00% |      708295     12.50%     37.50% |      708308     12.50%     50.00% |      708318     12.50%     62.50% |      708374     12.50%     75.00% |      708307     12.50%     87.50% |      708362     12.50%    100.00% (Unspecified)
system.caches.L2Cache_Controller.NP.L1_GETS::total      5666659                       (Unspecified)
system.caches.L2Cache_Controller.NP.L1_GETX |        2071     12.73%     12.73% |        2060     12.67%     25.40% |        1931     11.87%     37.27% |        1998     12.29%     49.56% |        2009     12.35%     61.91% |        2075     12.76%     74.67% |        2030     12.48%     87.15% |        2089     12.85%    100.00% (Unspecified)
system.caches.L2Cache_Controller.NP.L1_GETX::total        16263                       (Unspecified)
system.caches.L2Cache_Controller.SS.L1_GET_INSTR |        2573     12.20%     12.20% |        3434     16.28%     28.48% |        2537     12.03%     40.51% |        1862      8.83%     49.34% |        2570     12.19%     61.52% |        2592     12.29%     73.81% |        2485     11.78%     85.60% |        3038     14.40%    100.00% (Unspecified)
system.caches.L2Cache_Controller.SS.L1_GET_INSTR::total        21091                       (Unspecified)
system.caches.L2Cache_Controller.SS.L1_GETS |     1285301     12.54%     12.54% |     1283541     12.52%     25.07% |     1281697     12.51%     37.57% |     1280944     12.50%     50.07% |     1281117     12.50%     62.57% |     1279161     12.48%     75.05% |     1277716     12.47%     87.52% |     1278891     12.48%    100.00% (Unspecified)
system.caches.L2Cache_Controller.SS.L1_GETS::total     10248368                       (Unspecified)
system.caches.L2Cache_Controller.SS.L1_GETX |          81     60.45%     60.45% |           0      0.00%     60.45% |           0      0.00%     60.45% |           0      0.00%     60.45% |           6      4.48%     64.93% |           0      0.00%     64.93% |          43     32.09%     97.01% |           4      2.99%    100.00% (Unspecified)
system.caches.L2Cache_Controller.SS.L1_GETX::total          134                       (Unspecified)
system.caches.L2Cache_Controller.SS.L1_UPGRADE |        2369     12.43%     12.43% |        2391     12.54%     24.97% |        2353     12.34%     37.32% |        2351     12.33%     49.65% |        2386     12.52%     62.17% |        2360     12.38%     74.55% |        2480     13.01%     87.56% |        2371     12.44%    100.00% (Unspecified)
system.caches.L2Cache_Controller.SS.L1_UPGRADE::total        19061                       (Unspecified)
system.caches.L2Cache_Controller.SS.L2_Replacement |           2      7.14%      7.14% |           0      0.00%      7.14% |           3     10.71%     17.86% |           4     14.29%     32.14% |           7     25.00%     57.14% |           1      3.57%     60.71% |           8     28.57%     89.29% |           3     10.71%    100.00% (Unspecified)
system.caches.L2Cache_Controller.SS.L2_Replacement::total           28                       (Unspecified)
system.caches.L2Cache_Controller.SS.L2_Replacement_clean |         742     13.51%     13.51% |         733     13.34%     26.85% |         699     12.73%     39.58% |         600     10.92%     50.50% |         702     12.78%     63.28% |         702     12.78%     76.06% |         653     11.89%     87.95% |         662     12.05%    100.00% (Unspecified)
system.caches.L2Cache_Controller.SS.L2_Replacement_clean::total         5493                       (Unspecified)
system.caches.L2Cache_Controller.M.L1_GET_INSTR |           0      0.00%      0.00% |           2     25.00%     25.00% |           1     12.50%     37.50% |           0      0.00%     37.50% |           0      0.00%     37.50% |           1     12.50%     50.00% |           2     25.00%     75.00% |           2     25.00%    100.00% (Unspecified)
system.caches.L2Cache_Controller.M.L1_GET_INSTR::total            8                       (Unspecified)
system.caches.L2Cache_Controller.M.L1_GETS |        2072     13.11%     13.11% |        2312     14.62%     27.73% |        1374      8.69%     36.42% |        1960     12.40%     48.82% |        1896     11.99%     60.81% |        2364     14.95%     75.76% |        1915     12.11%     87.87% |        1917     12.13%    100.00% (Unspecified)
system.caches.L2Cache_Controller.M.L1_GETS::total        15810                       (Unspecified)
system.caches.L2Cache_Controller.M.L1_GETX |        1250     15.41%     15.41% |         939     11.57%     26.98% |         256      3.16%     30.13% |         795      9.80%     39.93% |         978     12.05%     51.98% |        1632     20.11%     72.10% |         995     12.26%     84.36% |        1269     15.64%    100.00% (Unspecified)
system.caches.L2Cache_Controller.M.L1_GETX::total         8114                       (Unspecified)
system.caches.L2Cache_Controller.M.L2_Replacement |       17439     12.50%     12.50% |       17422     12.48%     24.98% |       17370     12.45%     37.42% |       17421     12.48%     49.91% |       17425     12.49%     62.39% |       17501     12.54%     74.93% |       17410     12.47%     87.41% |       17576     12.59%    100.00% (Unspecified)
system.caches.L2Cache_Controller.M.L2_Replacement::total       139564                       (Unspecified)
system.caches.L2Cache_Controller.M.L2_Replacement_clean |      676378     12.50%     12.50% |      676470     12.50%     25.00% |      676310     12.50%     37.50% |      676352     12.50%     50.00% |      676376     12.50%     62.50% |      676433     12.50%     75.00% |      676392     12.50%     87.50% |      676322     12.50%    100.00% (Unspecified)
system.caches.L2Cache_Controller.M.L2_Replacement_clean::total      5411033                       (Unspecified)
system.caches.L2Cache_Controller.MT.L1_GETS |        2611     12.76%     12.76% |        2547     12.45%     25.21% |        2526     12.35%     37.56% |        2504     12.24%     49.80% |        2538     12.41%     62.21% |        2513     12.28%     74.49% |        2679     13.10%     87.59% |        2539     12.41%    100.00% (Unspecified)
system.caches.L2Cache_Controller.MT.L1_GETS::total        20457                       (Unspecified)
system.caches.L2Cache_Controller.MT.L1_GETX |          40     43.01%     43.01% |          16     17.20%     60.22% |           3      3.23%     63.44% |           1      1.08%     64.52% |           7      7.53%     72.04% |          14     15.05%     87.10% |           3      3.23%     90.32% |           9      9.68%    100.00% (Unspecified)
system.caches.L2Cache_Controller.MT.L1_GETX::total           93                       (Unspecified)
system.caches.L2Cache_Controller.MT.L1_PUTX |      712771     12.51%     12.51% |      712750     12.51%     25.01% |      711008     12.48%     37.49% |      712138     12.49%     49.98% |      712312     12.50%     62.48% |      713449     12.52%     75.00% |      712372     12.50%     87.50% |      712655     12.50%    100.00% (Unspecified)
system.caches.L2Cache_Controller.MT.L1_PUTX::total      5699455                       (Unspecified)
system.caches.L2Cache_Controller.MT.L2_Replacement |           0      0.00%      0.00% |           1     12.50%     12.50% |           1     12.50%     25.00% |           1     12.50%     37.50% |           1     12.50%     50.00% |           2     25.00%     75.00% |           1     12.50%     87.50% |           1     12.50%    100.00% (Unspecified)
system.caches.L2Cache_Controller.MT.L2_Replacement::total            8                       (Unspecified)
system.caches.L2Cache_Controller.MT.L2_Replacement_clean |         138     13.81%     13.81% |         132     13.21%     27.03% |         119     11.91%     38.94% |         120     12.01%     50.95% |         125     12.51%     63.46% |         110     11.01%     74.47% |         128     12.81%     87.29% |         127     12.71%    100.00% (Unspecified)
system.caches.L2Cache_Controller.MT.L2_Replacement_clean::total          999                       (Unspecified)
system.caches.L2Cache_Controller.M_I.Mem_Ack |      694699     12.50%     12.50% |      694758     12.50%     25.00% |      694502     12.50%     37.50% |      694498     12.50%     50.00% |      694636     12.50%     62.50% |      694749     12.50%     75.00% |      694592     12.50%     87.50% |      694691     12.50%    100.00% (Unspecified)
system.caches.L2Cache_Controller.M_I.Mem_Ack::total      5557125                       (Unspecified)
system.caches.L2Cache_Controller.MT_I.WB_Data |           0      0.00%      0.00% |           1     14.29%     14.29% |           1     14.29%     28.57% |           1     14.29%     42.86% |           1     14.29%     57.14% |           1     14.29%     71.43% |           1     14.29%     85.71% |           1     14.29%    100.00% (Unspecified)
system.caches.L2Cache_Controller.MT_I.WB_Data::total            7                       (Unspecified)
system.caches.L2Cache_Controller.MT_I.Ack_all |           0      0.00%      0.00% |           0      0.00%      0.00% |           0      0.00%      0.00% |           0      0.00%      0.00% |           0      0.00%      0.00% |           1    100.00%    100.00% |           0      0.00%    100.00% |           0      0.00%    100.00% (Unspecified)
system.caches.L2Cache_Controller.MT_I.Ack_all::total            1                       (Unspecified)
system.caches.L2Cache_Controller.MCT_I.WB_Data |           0      0.00%      0.00% |           2     33.33%     33.33% |           0      0.00%     33.33% |           1     16.67%     50.00% |           1     16.67%     66.67% |           0      0.00%     66.67% |           1     16.67%     83.33% |           1     16.67%    100.00% (Unspecified)
system.caches.L2Cache_Controller.MCT_I.WB_Data::total            6                       (Unspecified)
system.caches.L2Cache_Controller.MCT_I.Ack_all |         138     13.90%     13.90% |         130     13.09%     26.99% |         119     11.98%     38.97% |         119     11.98%     50.96% |         124     12.49%     63.44% |         110     11.08%     74.52% |         127     12.79%     87.31% |         126     12.69%    100.00% (Unspecified)
system.caches.L2Cache_Controller.MCT_I.Ack_all::total          993                       (Unspecified)
system.caches.L2Cache_Controller.I_I.Ack |        3430     13.81%     13.81% |        3312     13.34%     27.15% |        3119     12.56%     39.70% |        2471      9.95%     49.65% |        3142     12.65%     62.30% |        3399     13.69%     75.99% |        3071     12.37%     88.36% |        2892     11.64%    100.00% (Unspecified)
system.caches.L2Cache_Controller.I_I.Ack::total        24836                       (Unspecified)
system.caches.L2Cache_Controller.I_I.Ack_all |         742     13.51%     13.51% |         733     13.34%     26.85% |         699     12.73%     39.58% |         600     10.92%     50.50% |         702     12.78%     63.28% |         702     12.78%     76.06% |         653     11.89%     87.95% |         662     12.05%    100.00% (Unspecified)
system.caches.L2Cache_Controller.I_I.Ack_all::total         5493                       (Unspecified)
system.caches.L2Cache_Controller.S_I.Ack |          10     18.18%     18.18% |           0      0.00%     18.18% |           7     12.73%     30.91% |           4      7.27%     38.18% |          13     23.64%     61.82% |           1      1.82%     63.64% |          10     18.18%     81.82% |          10     18.18%    100.00% (Unspecified)
system.caches.L2Cache_Controller.S_I.Ack::total           55                       (Unspecified)
system.caches.L2Cache_Controller.S_I.Ack_all |           2      7.14%      7.14% |           0      0.00%      7.14% |           3     10.71%     17.86% |           4     14.29%     32.14% |           7     25.00%     57.14% |           1      3.57%     60.71% |           8     28.57%     89.29% |           3     10.71%    100.00% (Unspecified)
system.caches.L2Cache_Controller.S_I.Ack_all::total           28                       (Unspecified)
system.caches.L2Cache_Controller.ISS.L1_GETS |          31     30.10%     30.10% |          16     15.53%     45.63% |          16     15.53%     61.17% |           9      8.74%     69.90% |           3      2.91%     72.82% |          11     10.68%     83.50% |           4      3.88%     87.38% |          13     12.62%    100.00% (Unspecified)
system.caches.L2Cache_Controller.ISS.L1_GETS::total          103                       (Unspecified)
system.caches.L2Cache_Controller.ISS.Mem_Data |      708275     12.50%     12.50% |      708363     12.50%     25.00% |      708278     12.50%     37.50% |      708299     12.50%     50.00% |      708314     12.50%     62.50% |      708361     12.50%     75.00% |      708302     12.50%     87.50% |      708347     12.50%    100.00% (Unspecified)
system.caches.L2Cache_Controller.ISS.Mem_Data::total      5666539                       (Unspecified)
system.caches.L2Cache_Controller.IS.L1_GET_INSTR |         778     13.98%     13.98% |         759     13.64%     27.61% |         566     10.17%     37.78% |         603     10.83%     48.62% |         705     12.67%     61.28% |         860     15.45%     76.73% |         696     12.50%     89.24% |         599     10.76%    100.00% (Unspecified)
system.caches.L2Cache_Controller.IS.L1_GET_INSTR::total         5566                       (Unspecified)
system.caches.L2Cache_Controller.IS.L1_GETS |          89     38.03%     38.03% |          38     16.24%     54.27% |          34     14.53%     68.80% |          15      6.41%     75.21% |           8      3.42%     78.63% |          27     11.54%     90.17% |           6      2.56%     92.74% |          17      7.26%    100.00% (Unspecified)
system.caches.L2Cache_Controller.IS.L1_GETS::total          234                       (Unspecified)
system.caches.L2Cache_Controller.IS.Mem_Data |         731     13.59%     13.59% |         715     13.29%     26.89% |         676     12.57%     39.46% |         585     10.88%     50.33% |         696     12.94%     63.28% |         695     12.92%     76.20% |         643     11.96%     88.16% |         637     11.84%    100.00% (Unspecified)
system.caches.L2Cache_Controller.IS.Mem_Data::total         5378                       (Unspecified)
system.caches.L2Cache_Controller.IM.Mem_Data |        2071     12.73%     12.73% |        2060     12.67%     25.40% |        1931     11.87%     37.27% |        1998     12.29%     49.56% |        2009     12.35%     61.91% |        2075     12.76%     74.67% |        2030     12.48%     87.15% |        2089     12.85%    100.00% (Unspecified)
system.caches.L2Cache_Controller.IM.Mem_Data::total        16263                       (Unspecified)
system.caches.L2Cache_Controller.SS_MB.L1_GETS |           0      0.00%      0.00% |           0      0.00%      0.00% |           0      0.00%      0.00% |           0      0.00%      0.00% |           0      0.00%      0.00% |           0      0.00%      0.00% |         140     83.33%     83.33% |          28     16.67%    100.00% (Unspecified)
system.caches.L2Cache_Controller.SS_MB.L1_GETS::total          168                       (Unspecified)
system.caches.L2Cache_Controller.SS_MB.Exclusive_Unblock |        2450     12.76%     12.76% |        2391     12.46%     25.22% |        2353     12.26%     37.48% |        2351     12.25%     49.73% |        2392     12.46%     62.19% |        2360     12.29%     74.48% |        2523     13.14%     87.63% |        2375     12.37%    100.00% (Unspecified)
system.caches.L2Cache_Controller.SS_MB.Exclusive_Unblock::total        19195                       (Unspecified)
system.caches.L2Cache_Controller.MT_MB.L1_GETS |          29     23.58%     23.58% |          17     13.82%     37.40% |          25     20.33%     57.72% |          22     17.89%     75.61% |           8      6.50%     82.11% |           7      5.69%     87.80% |           0      0.00%     87.80% |          15     12.20%    100.00% (Unspecified)
system.caches.L2Cache_Controller.MT_MB.L1_GETS::total          123                       (Unspecified)
system.caches.L2Cache_Controller.MT_MB.L1_GETX |          33     97.06%     97.06% |           1      2.94%    100.00% |           0      0.00%    100.00% |           0      0.00%    100.00% |           0      0.00%    100.00% |           0      0.00%    100.00% |           0      0.00%    100.00% |           0      0.00%    100.00% (Unspecified)
system.caches.L2Cache_Controller.MT_MB.L1_GETX::total           34                       (Unspecified)
system.caches.L2Cache_Controller.MT_MB.Exclusive_Unblock |      713708     12.51%     12.51% |      713690     12.51%     25.01% |      711842     12.47%     37.49% |      713053     12.49%     49.98% |      713204     12.50%     62.48% |      714446     12.52%     75.00% |      713245     12.50%     87.50% |      713630     12.50%    100.00% (Unspecified)
system.caches.L2Cache_Controller.MT_MB.Exclusive_Unblock::total      5706818                       (Unspecified)
system.caches.L2Cache_Controller.MT_IIB.L1_GETS |          43     16.60%     16.60% |          19      7.34%     23.94% |          27     10.42%     34.36% |          19      7.34%     41.70% |          22      8.49%     50.19% |          12      4.63%     54.83% |          65     25.10%     79.92% |          52     20.08%    100.00% (Unspecified)
system.caches.L2Cache_Controller.MT_IIB.L1_GETS::total          259                       (Unspecified)
system.caches.L2Cache_Controller.MT_IIB.WB_Data |        2423     12.77%     12.77% |        2364     12.46%     25.22% |        2317     12.21%     37.43% |        2331     12.28%     49.71% |        2368     12.48%     62.19% |        2324     12.25%     74.43% |        2503     13.19%     87.62% |        2349     12.38%    100.00% (Unspecified)
system.caches.L2Cache_Controller.MT_IIB.WB_Data::total        18979                       (Unspecified)
system.caches.L2Cache_Controller.MT_IIB.WB_Data_clean |         185     12.70%     12.70% |         178     12.22%     24.91% |         204     14.00%     38.92% |         171     11.74%     50.65% |         169     11.60%     62.25% |         187     12.83%     75.09% |         175     12.01%     87.10% |         188     12.90%    100.00% (Unspecified)
system.caches.L2Cache_Controller.MT_IIB.WB_Data_clean::total         1457                       (Unspecified)
system.caches.L2Cache_Controller.MT_IIB.Unblock |           3     14.29%     14.29% |           5     23.81%     38.10% |           5     23.81%     61.90% |           2      9.52%     71.43% |           1      4.76%     76.19% |           2      9.52%     85.71% |           1      4.76%     90.48% |           2      9.52%    100.00% (Unspecified)
system.caches.L2Cache_Controller.MT_IIB.Unblock::total           21                       (Unspecified)
system.caches.L2Cache_Controller.MT_IB.WB_Data |           3     14.29%     14.29% |           5     23.81%     38.10% |           5     23.81%     61.90% |           2      9.52%     71.43% |           1      4.76%     76.19% |           2      9.52%     85.71% |           1      4.76%     90.48% |           2      9.52%    100.00% (Unspecified)
system.caches.L2Cache_Controller.MT_IB.WB_Data::total           21                       (Unspecified)
system.caches.L2Cache_Controller.MT_SB.L1_GETS |          10     22.73%     22.73% |           8     18.18%     40.91% |           8     18.18%     59.09% |           3      6.82%     65.91% |           5     11.36%     77.27% |           2      4.55%     81.82% |           0      0.00%     81.82% |           8     18.18%    100.00% (Unspecified)
system.caches.L2Cache_Controller.MT_SB.L1_GETS::total           44                       (Unspecified)
system.caches.L2Cache_Controller.MT_SB.L1_UPGRADE |           0      0.00%      0.00% |           0      0.00%      0.00% |           0      0.00%      0.00% |           0      0.00%      0.00% |           0      0.00%      0.00% |           0      0.00%      0.00% |          38    100.00%    100.00% |           0      0.00%    100.00% (Unspecified)
system.caches.L2Cache_Controller.MT_SB.L1_UPGRADE::total           38                       (Unspecified)
system.caches.L2Cache_Controller.MT_SB.Unblock |        2608     12.76%     12.76% |        2542     12.44%     25.20% |        2521     12.34%     37.54% |        2502     12.24%     49.78% |        2537     12.41%     62.19% |        2511     12.29%     74.48% |        2678     13.10%     87.59% |        2537     12.41%    100.00% (Unspecified)
system.caches.L2Cache_Controller.MT_SB.Unblock::total        20436                       (Unspecified)
system.caches.RequestType.LD.latency_hist_seqr::bucket_size         1024                       (Unspecified)
system.caches.RequestType.LD.latency_hist_seqr::max_bucket        10239                       (Unspecified)
system.caches.RequestType.LD.latency_hist_seqr::samples     48781382                       (Unspecified)
system.caches.RequestType.LD.latency_hist_seqr::mean    92.246633                       (Unspecified)
system.caches.RequestType.LD.latency_hist_seqr::gmean     4.139973                       (Unspecified)
system.caches.RequestType.LD.latency_hist_seqr::stdev   267.615055                       (Unspecified)
system.caches.RequestType.LD.latency_hist_seqr |    48106782     98.62%     98.62% |      590948      1.21%     99.83% |       81339      0.17%    100.00% |        2261      0.00%    100.00% |          51      0.00%    100.00% |           0      0.00%    100.00% |           1      0.00%    100.00% |           0      0.00%    100.00% |           0      0.00%    100.00% |           0      0.00%    100.00% (Unspecified)
system.caches.RequestType.LD.latency_hist_seqr::total     48781382                       (Unspecified)
system.caches.RequestType.LD.hit_latency_hist_seqr::bucket_size            1                       (Unspecified)
system.caches.RequestType.LD.hit_latency_hist_seqr::max_bucket            9                       (Unspecified)
system.caches.RequestType.LD.hit_latency_hist_seqr::samples     32829768                       (Unspecified)
system.caches.RequestType.LD.hit_latency_hist_seqr::mean     1.127040                       (Unspecified)
system.caches.RequestType.LD.hit_latency_hist_seqr::gmean     1.090784                       (Unspecified)
system.caches.RequestType.LD.hit_latency_hist_seqr::stdev     0.344925                       (Unspecified)
system.caches.RequestType.LD.hit_latency_hist_seqr |           0      0.00%      0.00% |    28791492     87.70%     87.70% |     3905983     11.90%     99.60% |      132184      0.40%    100.00% |         109      0.00%    100.00% |           0      0.00%    100.00% |           0      0.00%    100.00% |           0      0.00%    100.00% |           0      0.00%    100.00% |           0      0.00%    100.00% (Unspecified)
system.caches.RequestType.LD.hit_latency_hist_seqr::total     32829768                       (Unspecified)
system.caches.RequestType.LD.miss_latency_hist_seqr::bucket_size         1024                       (Unspecified)
system.caches.RequestType.LD.miss_latency_hist_seqr::max_bucket        10239                       (Unspecified)
system.caches.RequestType.LD.miss_latency_hist_seqr::samples     15951614                       (Unspecified)
system.caches.RequestType.LD.miss_latency_hist_seqr::mean   279.778447                       (Unspecified)
system.caches.RequestType.LD.miss_latency_hist_seqr::gmean    64.440837                       (Unspecified)
system.caches.RequestType.LD.miss_latency_hist_seqr::stdev   408.359020                       (Unspecified)
system.caches.RequestType.LD.miss_latency_hist_seqr |    15277014     95.77%     95.77% |      590948      3.70%     99.48% |       81339      0.51%     99.99% |        2261      0.01%    100.00% |          51      0.00%    100.00% |           0      0.00%    100.00% |           1      0.00%    100.00% |           0      0.00%    100.00% |           0      0.00%    100.00% |           0      0.00%    100.00% (Unspecified)
system.caches.RequestType.LD.miss_latency_hist_seqr::total     15951614                       (Unspecified)
system.caches.RequestType.ST.latency_hist_seqr::bucket_size          512                       (Unspecified)
system.caches.RequestType.ST.latency_hist_seqr::max_bucket         5119                       (Unspecified)
system.caches.RequestType.ST.latency_hist_seqr::samples       704624                       (Unspecified)
system.caches.RequestType.ST.latency_hist_seqr::mean    18.337071                       (Unspecified)
system.caches.RequestType.ST.latency_hist_seqr::gmean     1.279408                       (Unspecified)
system.caches.RequestType.ST.latency_hist_seqr::stdev   123.087892                       (Unspecified)
system.caches.RequestType.ST.latency_hist_seqr |      691542     98.14%     98.14% |       11062      1.57%     99.71% |        1232      0.17%     99.89% |         510      0.07%     99.96% |         229      0.03%     99.99% |          42      0.01%    100.00% |           7      0.00%    100.00% |           0      0.00%    100.00% |           0      0.00%    100.00% |           0      0.00%    100.00% (Unspecified)
system.caches.RequestType.ST.latency_hist_seqr::total       704624                       (Unspecified)
system.caches.RequestType.ST.hit_latency_hist_seqr::bucket_size          128                       (Unspecified)
system.caches.RequestType.ST.hit_latency_hist_seqr::max_bucket         1279                       (Unspecified)
system.caches.RequestType.ST.hit_latency_hist_seqr::samples       665448                       (Unspecified)
system.caches.RequestType.ST.hit_latency_hist_seqr::mean     1.013771                       (Unspecified)
system.caches.RequestType.ST.hit_latency_hist_seqr::gmean     1.001984                       (Unspecified)
system.caches.RequestType.ST.hit_latency_hist_seqr::stdev     2.369941                       (Unspecified)
system.caches.RequestType.ST.hit_latency_hist_seqr |      665432    100.00%    100.00% |           0      0.00%    100.00% |           7      0.00%    100.00% |           4      0.00%    100.00% |           3      0.00%    100.00% |           1      0.00%    100.00% |           1      0.00%    100.00% |           0      0.00%    100.00% |           0      0.00%    100.00% |           0      0.00%    100.00% (Unspecified)
system.caches.RequestType.ST.hit_latency_hist_seqr::total       665448                       (Unspecified)
system.caches.RequestType.ST.miss_latency_hist_seqr::bucket_size          512                       (Unspecified)
system.caches.RequestType.ST.miss_latency_hist_seqr::max_bucket         5119                       (Unspecified)
system.caches.RequestType.ST.miss_latency_hist_seqr::samples        39176                       (Unspecified)
system.caches.RequestType.ST.miss_latency_hist_seqr::mean   312.592608                       (Unspecified)
system.caches.RequestType.ST.miss_latency_hist_seqr::gmean    81.294083                       (Unspecified)
system.caches.RequestType.ST.miss_latency_hist_seqr::stdev   425.118768                       (Unspecified)
system.caches.RequestType.ST.miss_latency_hist_seqr |       26099     66.62%     66.62% |       11057     28.22%     94.84% |        1232      3.14%     97.99% |         510      1.30%     99.29% |         229      0.58%     99.87% |          42      0.11%     99.98% |           7      0.02%    100.00% |           0      0.00%    100.00% |           0      0.00%    100.00% |           0      0.00%    100.00% (Unspecified)
system.caches.RequestType.ST.miss_latency_hist_seqr::total        39176                       (Unspecified)
system.caches.RequestType.IFETCH.latency_hist_seqr::bucket_size          256                       (Unspecified)
system.caches.RequestType.IFETCH.latency_hist_seqr::max_bucket         2559                       (Unspecified)
system.caches.RequestType.IFETCH.latency_hist_seqr::samples       841937                       (Unspecified)
system.caches.RequestType.IFETCH.latency_hist_seqr::mean     5.038586                       (Unspecified)
system.caches.RequestType.IFETCH.latency_hist_seqr::gmean     1.146828                       (Unspecified)
system.caches.RequestType.IFETCH.latency_hist_seqr::stdev    38.066446                       (Unspecified)
system.caches.RequestType.IFETCH.latency_hist_seqr |      837477     99.47%     99.47% |        3858      0.46%     99.93% |         399      0.05%     99.98% |          75      0.01%     99.98% |          24      0.00%     99.99% |          44      0.01%     99.99% |          43      0.01%    100.00% |          11      0.00%    100.00% |           4      0.00%    100.00% |           2      0.00%    100.00% (Unspecified)
system.caches.RequestType.IFETCH.latency_hist_seqr::total       841937                       (Unspecified)
system.caches.RequestType.IFETCH.hit_latency_hist_seqr::bucket_size            1                       (Unspecified)
system.caches.RequestType.IFETCH.hit_latency_hist_seqr::max_bucket            9                       (Unspecified)
system.caches.RequestType.IFETCH.hit_latency_hist_seqr::samples       809997                       (Unspecified)
system.caches.RequestType.IFETCH.hit_latency_hist_seqr::mean     1.000102                       (Unspecified)
system.caches.RequestType.IFETCH.hit_latency_hist_seqr::gmean     1.000071                       (Unspecified)
system.caches.RequestType.IFETCH.hit_latency_hist_seqr::stdev     0.010122                       (Unspecified)
system.caches.RequestType.IFETCH.hit_latency_hist_seqr |           0      0.00%      0.00% |      809914     99.99%     99.99% |          83      0.01%    100.00% |           0      0.00%    100.00% |           0      0.00%    100.00% |           0      0.00%    100.00% |           0      0.00%    100.00% |           0      0.00%    100.00% |           0      0.00%    100.00% |           0      0.00%    100.00% (Unspecified)
system.caches.RequestType.IFETCH.hit_latency_hist_seqr::total       809997                       (Unspecified)
system.caches.RequestType.IFETCH.miss_latency_hist_seqr::bucket_size          256                       (Unspecified)
system.caches.RequestType.IFETCH.miss_latency_hist_seqr::max_bucket         2559                       (Unspecified)
system.caches.RequestType.IFETCH.miss_latency_hist_seqr::samples        31940                       (Unspecified)
system.caches.RequestType.IFETCH.miss_latency_hist_seqr::mean   107.454352                       (Unspecified)
system.caches.RequestType.IFETCH.miss_latency_hist_seqr::gmean    36.948144                       (Unspecified)
system.caches.RequestType.IFETCH.miss_latency_hist_seqr::stdev   165.212655                       (Unspecified)
system.caches.RequestType.IFETCH.miss_latency_hist_seqr |       27480     86.04%     86.04% |        3858     12.08%     98.12% |         399      1.25%     99.36% |          75      0.23%     99.60% |          24      0.08%     99.67% |          44      0.14%     99.81% |          43      0.13%     99.95% |          11      0.03%     99.98% |           4      0.01%     99.99% |           2      0.01%    100.00% (Unspecified)
system.caches.RequestType.IFETCH.miss_latency_hist_seqr::total        31940                       (Unspecified)
system.caches.RequestType.RMW_Read.latency_hist_seqr::bucket_size          256                       (Unspecified)
system.caches.RequestType.RMW_Read.latency_hist_seqr::max_bucket         2559                       (Unspecified)
system.caches.RequestType.RMW_Read.latency_hist_seqr::samples        12613                       (Unspecified)
system.caches.RequestType.RMW_Read.latency_hist_seqr::mean    25.551653                       (Unspecified)
system.caches.RequestType.RMW_Read.latency_hist_seqr::gmean     2.965603                       (Unspecified)
system.caches.RequestType.RMW_Read.latency_hist_seqr::stdev   129.018187                       (Unspecified)
system.caches.RequestType.RMW_Read.latency_hist_seqr |       12249     97.11%     97.11% |         104      0.82%     97.94% |         177      1.40%     99.34% |          39      0.31%     99.65% |          20      0.16%     99.81% |          10      0.08%     99.89% |           3      0.02%     99.91% |           6      0.05%     99.96% |           4      0.03%     99.99% |           1      0.01%    100.00% (Unspecified)
system.caches.RequestType.RMW_Read.latency_hist_seqr::total        12613                       (Unspecified)
system.caches.RequestType.RMW_Read.hit_latency_hist_seqr::bucket_size          256                       (Unspecified)
system.caches.RequestType.RMW_Read.hit_latency_hist_seqr::max_bucket         2559                       (Unspecified)
system.caches.RequestType.RMW_Read.hit_latency_hist_seqr::samples         8997                       (Unspecified)
system.caches.RequestType.RMW_Read.hit_latency_hist_seqr::mean     4.938535                       (Unspecified)
system.caches.RequestType.RMW_Read.hit_latency_hist_seqr::gmean     1.353502                       (Unspecified)
system.caches.RequestType.RMW_Read.hit_latency_hist_seqr::stdev    46.459465                       (Unspecified)
system.caches.RequestType.RMW_Read.hit_latency_hist_seqr |        8956     99.54%     99.54% |          11      0.12%     99.67% |          21      0.23%     99.90% |           4      0.04%     99.94% |           4      0.04%     99.99% |           1      0.01%    100.00% |           0      0.00%    100.00% |           0      0.00%    100.00% |           0      0.00%    100.00% |           0      0.00%    100.00% (Unspecified)
system.caches.RequestType.RMW_Read.hit_latency_hist_seqr::total         8997                       (Unspecified)
system.caches.RequestType.RMW_Read.miss_latency_hist_seqr::bucket_size          256                       (Unspecified)
system.caches.RequestType.RMW_Read.miss_latency_hist_seqr::max_bucket         2559                       (Unspecified)
system.caches.RequestType.RMW_Read.miss_latency_hist_seqr::samples         3616                       (Unspecified)
system.caches.RequestType.RMW_Read.miss_latency_hist_seqr::mean    76.839325                       (Unspecified)
system.caches.RequestType.RMW_Read.miss_latency_hist_seqr::gmean    20.878388                       (Unspecified)
system.caches.RequestType.RMW_Read.miss_latency_hist_seqr::stdev   221.389627                       (Unspecified)
system.caches.RequestType.RMW_Read.miss_latency_hist_seqr |        3293     91.07%     91.07% |          93      2.57%     93.64% |         156      4.31%     97.95% |          35      0.97%     98.92% |          16      0.44%     99.36% |           9      0.25%     99.61% |           3      0.08%     99.70% |           6      0.17%     99.86% |           4      0.11%     99.97% |           1      0.03%    100.00% (Unspecified)
system.caches.RequestType.RMW_Read.miss_latency_hist_seqr::total         3616                       (Unspecified)
system.caches.RequestType.Locked_RMW_Read.latency_hist_seqr::bucket_size          256                       (Unspecified)
system.caches.RequestType.Locked_RMW_Read.latency_hist_seqr::max_bucket         2559                       (Unspecified)
system.caches.RequestType.Locked_RMW_Read.latency_hist_seqr::samples         2780                       (Unspecified)
system.caches.RequestType.Locked_RMW_Read.latency_hist_seqr::mean    25.267626                       (Unspecified)
system.caches.RequestType.Locked_RMW_Read.latency_hist_seqr::gmean     2.588270                       (Unspecified)
system.caches.RequestType.Locked_RMW_Read.latency_hist_seqr::stdev   136.033386                       (Unspecified)
system.caches.RequestType.Locked_RMW_Read.latency_hist_seqr |        2703     97.23%     97.23% |          32      1.15%     98.38% |          18      0.65%     99.03% |          18      0.65%     99.68% |           2      0.07%     99.75% |           1      0.04%     99.78% |           3      0.11%     99.89% |           1      0.04%     99.93% |           2      0.07%    100.00% |           0      0.00%    100.00% (Unspecified)
system.caches.RequestType.Locked_RMW_Read.latency_hist_seqr::total         2780                       (Unspecified)
system.caches.RequestType.Locked_RMW_Read.hit_latency_hist_seqr::bucket_size            1                       (Unspecified)
system.caches.RequestType.Locked_RMW_Read.hit_latency_hist_seqr::max_bucket            9                       (Unspecified)
system.caches.RequestType.Locked_RMW_Read.hit_latency_hist_seqr::samples         1907                       (Unspecified)
system.caches.RequestType.Locked_RMW_Read.hit_latency_hist_seqr::mean            1                       (Unspecified)
system.caches.RequestType.Locked_RMW_Read.hit_latency_hist_seqr::gmean            1                       (Unspecified)
[...]
system.o3Cpu7.iew.predictedTakenIncorrect        15772                       # Number of branches that were predicted taken incorrectly (Count)
system.o3Cpu7.iew.predictedNotTakenIncorrect         1128                       # Number of branches that were predicted not taken incorrectly (Count)
system.o3Cpu7.iew.branchMispredicts             16900                       # Number of branch mispredicts detected at execute (Count)
system.o3Cpu7.iew.instsToCommit              52920174                       # Cumulative count of insts sent to commit (Count)
system.o3Cpu7.iew.writebackCount             52919858                       # Cumulative count of insts written-back (Count)
system.o3Cpu7.iew.producerInst               43458278                       # Number of instructions producing a value (Count)
system.o3Cpu7.iew.consumerInst               64633176                       # Number of instructions consuming a value (Count)
system.o3Cpu7.iew.wbRate                     0.275627                       # Insts written-back per cycle ((Count/Cycle))
system.o3Cpu7.iew.wbFanout                   0.672383                       # Average fanout of values written-back ((Count/Count))
system.o3Cpu7.interrupts.clk_domain.clock         3200                       # Clock period in ticks (Tick)
system.o3Cpu7.lsq0.forwLoads                     4450                       # Number of loads that had data forwarded from stores (Count)
system.o3Cpu7.lsq0.squashedLoads               118653                       # Number of loads squashed (Count)
system.o3Cpu7.lsq0.ignoredResponses                55                       # Number of memory responses ignored because the instruction is squashed (Count)
system.o3Cpu7.lsq0.memOrderViolation              311                       # Number of memory ordering violations (Count)
system.o3Cpu7.lsq0.squashedStores                5035                       # Number of stores squashed (Count)
system.o3Cpu7.lsq0.rescheduledLoads                72                       # Number of loads that were rescheduled (Count)
system.o3Cpu7.lsq0.blockedByCache             3227155                       # Number of times an access to memory failed due to the cache being blocked (Count)
system.o3Cpu7.lsq0.loadToUse::samples        11529340                       # Distribution of cycle latency between the first time a load is issued and its completion (Unspecified)
system.o3Cpu7.lsq0.loadToUse::mean         581.440365                       # Distribution of cycle latency between the first time a load is issued and its completion (Unspecified)
system.o3Cpu7.lsq0.loadToUse::stdev        586.505950                       # Distribution of cycle latency between the first time a load is issued and its completion (Unspecified)
system.o3Cpu7.lsq0.loadToUse::0-9             2186210     18.96%     18.96% # Distribution of cycle latency between the first time a load is issued and its completion (Unspecified)
system.o3Cpu7.lsq0.loadToUse::10-19            698887      6.06%     25.02% # Distribution of cycle latency between the first time a load is issued and its completion (Unspecified)
system.o3Cpu7.lsq0.loadToUse::20-29            484415      4.20%     29.23% # Distribution of cycle latency between the first time a load is issued and its completion (Unspecified)
system.o3Cpu7.lsq0.loadToUse::30-39            276669      2.40%     31.63% # Distribution of cycle latency between the first time a load is issued and its completion (Unspecified)
system.o3Cpu7.lsq0.loadToUse::40-49            295625      2.56%     34.19% # Distribution of cycle latency between the first time a load is issued and its completion (Unspecified)
system.o3Cpu7.lsq0.loadToUse::50-59             56871      0.49%     34.68% # Distribution of cycle latency between the first time a load is issued and its completion (Unspecified)
system.o3Cpu7.lsq0.loadToUse::60-69             51773      0.45%     35.13% # Distribution of cycle latency between the first time a load is issued and its completion (Unspecified)
system.o3Cpu7.lsq0.loadToUse::70-79             14795      0.13%     35.26% # Distribution of cycle latency between the first time a load is issued and its completion (Unspecified)
system.o3Cpu7.lsq0.loadToUse::80-89             26665      0.23%     35.49% # Distribution of cycle latency between the first time a load is issued and its completion (Unspecified)
system.o3Cpu7.lsq0.loadToUse::90-99             76217      0.66%     36.15% # Distribution of cycle latency between the first time a load is issued and its completion (Unspecified)
system.o3Cpu7.lsq0.loadToUse::100-109           15956      0.14%     36.29% # Distribution of cycle latency between the first time a load is issued and its completion (Unspecified)
system.o3Cpu7.lsq0.loadToUse::110-119           11851      0.10%     36.39% # Distribution of cycle latency between the first time a load is issued and its completion (Unspecified)
system.o3Cpu7.lsq0.loadToUse::120-129            9101      0.08%     36.47% # Distribution of cycle latency between the first time a load is issued and its completion (Unspecified)
system.o3Cpu7.lsq0.loadToUse::130-139           15144      0.13%     36.60% # Distribution of cycle latency between the first time a load is issued and its completion (Unspecified)
system.o3Cpu7.lsq0.loadToUse::140-149           24340      0.21%     36.81% # Distribution of cycle latency between the first time a load is issued and its completion (Unspecified)
system.o3Cpu7.lsq0.loadToUse::150-159           10967      0.10%     36.91% # Distribution of cycle latency between the first time a load is issued and its completion (Unspecified)
system.o3Cpu7.lsq0.loadToUse::160-169            9136      0.08%     36.99% # Distribution of cycle latency between the first time a load is issued and its completion (Unspecified)
system.o3Cpu7.lsq0.loadToUse::170-179            8071      0.07%     37.06% # Distribution of cycle latency between the first time a load is issued and its completion (Unspecified)
system.o3Cpu7.lsq0.loadToUse::180-189           11410      0.10%     37.16% # Distribution of cycle latency between the first time a load is issued and its completion (Unspecified)
system.o3Cpu7.lsq0.loadToUse::190-199           14985      0.13%     37.29% # Distribution of cycle latency between the first time a load is issued and its completion (Unspecified)
system.o3Cpu7.lsq0.loadToUse::200-209            9932      0.09%     37.37% # Distribution of cycle latency between the first time a load is issued and its completion (Unspecified)
system.o3Cpu7.lsq0.loadToUse::210-219            9452      0.08%     37.46% # Distribution of cycle latency between the first time a load is issued and its completion (Unspecified)
system.o3Cpu7.lsq0.loadToUse::220-229            9284      0.08%     37.54% # Distribution of cycle latency between the first time a load is issued and its completion (Unspecified)
system.o3Cpu7.lsq0.loadToUse::230-239           12730      0.11%     37.65% # Distribution of cycle latency between the first time a load is issued and its completion (Unspecified)
system.o3Cpu7.lsq0.loadToUse::240-249           17688      0.15%     37.80% # Distribution of cycle latency between the first time a load is issued and its completion (Unspecified)
system.o3Cpu7.lsq0.loadToUse::250-259           14569      0.13%     37.93% # Distribution of cycle latency between the first time a load is issued and its completion (Unspecified)
system.o3Cpu7.lsq0.loadToUse::260-269           14580      0.13%     38.05% # Distribution of cycle latency between the first time a load is issued and its completion (Unspecified)
system.o3Cpu7.lsq0.loadToUse::270-279           16874      0.15%     38.20% # Distribution of cycle latency between the first time a load is issued and its completion (Unspecified)
system.o3Cpu7.lsq0.loadToUse::280-289           24307      0.21%     38.41% # Distribution of cycle latency between the first time a load is issued and its completion (Unspecified)
system.o3Cpu7.lsq0.loadToUse::290-299           32970      0.29%     38.70% # Distribution of cycle latency between the first time a load is issued and its completion (Unspecified)
system.o3Cpu7.lsq0.loadToUse::overflows       7067866     61.30%    100.00% # Distribution of cycle latency between the first time a load is issued and its completion (Unspecified)
system.o3Cpu7.lsq0.loadToUse::min_value             2                       # Distribution of cycle latency between the first time a load is issued and its completion (Unspecified)
system.o3Cpu7.lsq0.loadToUse::max_value          6857                       # Distribution of cycle latency between the first time a load is issued and its completion (Unspecified)
system.o3Cpu7.lsq0.loadToUse::total          11529340                       # Distribution of cycle latency between the first time a load is issued and its completion (Unspecified)
system.o3Cpu7.mmu.dtb.rdAccesses             11582881                       # TLB accesses on read requests (Count)
system.o3Cpu7.mmu.dtb.wrAccesses                90517                       # TLB accesses on write requests (Count)
system.o3Cpu7.mmu.dtb.rdMisses                   7589                       # TLB misses on read requests (Count)
system.o3Cpu7.mmu.dtb.wrMisses                    957                       # TLB misses on write requests (Count)
system.o3Cpu7.mmu.dtb.walker.power_state.pwrStateResidencyTicks::UNDEFINED  40286461400                       # Cumulative time (in ticks) in various power states (Tick)
system.o3Cpu7.mmu.itb.rdAccesses                    0                       # TLB accesses on read requests (Count)
system.o3Cpu7.mmu.itb.wrAccesses               104912                       # TLB accesses on write requests (Count)
system.o3Cpu7.mmu.itb.rdMisses                      0                       # TLB misses on read requests (Count)
system.o3Cpu7.mmu.itb.wrMisses                    112                       # TLB misses on write requests (Count)
system.o3Cpu7.mmu.itb.walker.power_state.pwrStateResidencyTicks::UNDEFINED  40286461400                       # Cumulative time (in ticks) in various power states (Tick)
system.o3Cpu7.power_state.numTransitions            4                       # Number of power state transitions (Count)
system.o3Cpu7.power_state.ticksClkGated::samples            2                       # Distribution of time spent in the clock gated state (Tick)
system.o3Cpu7.power_state.ticksClkGated::mean    438181900                       # Distribution of time spent in the clock gated state (Tick)
system.o3Cpu7.power_state.ticksClkGated::stdev 553433668.594331                       # Distribution of time spent in the clock gated state (Tick)
system.o3Cpu7.power_state.ticksClkGated::1000-5e+10            2    100.00%    100.00% # Distribution of time spent in the clock gated state (Tick)
system.o3Cpu7.power_state.ticksClkGated::min_value     46845200                       # Distribution of time spent in the clock gated state (Tick)
system.o3Cpu7.power_state.ticksClkGated::max_value    829518600                       # Distribution of time spent in the clock gated state (Tick)
system.o3Cpu7.power_state.ticksClkGated::total            2                       # Distribution of time spent in the clock gated state (Tick)
system.o3Cpu7.power_state.pwrStateResidencyTicks::ON   8971459000                       # Cumulative time (in ticks) in various power states (Tick)
system.o3Cpu7.power_state.pwrStateResidencyTicks::CLK_GATED    876363800                       # Cumulative time (in ticks) in various power states (Tick)
system.o3Cpu7.power_state.pwrStateResidencyTicks::OFF  30438638600                       # Cumulative time (in ticks) in various power states (Tick)
system.o3Cpu7.rename.squashCycles               17163                       # Number of cycles rename is squashing (Cycle)
system.o3Cpu7.rename.idleCycles               1941725                       # Number of cycles rename is idle (Cycle)
system.o3Cpu7.rename.blockCycles             40089278                       # Number of cycles rename is blocking (Cycle)
system.o3Cpu7.rename.serializeStallCycles       179051                       # count of cycles rename stalled for serializing inst (Cycle)
system.o3Cpu7.rename.runCycles                2648195                       # Number of cycles rename is running (Cycle)
system.o3Cpu7.rename.unblockCycles          142467079                       # Number of cycles rename is unblocking (Cycle)
system.o3Cpu7.rename.renamedInsts            53327415                       # Number of instructions processed by rename (Count)
system.o3Cpu7.rename.ROBFullEvents              69908                       # Number of times rename has blocked due to ROB full (Count)
system.o3Cpu7.rename.IQFullEvents            38780615                       # Number of times rename has blocked due to IQ full (Count)
system.o3Cpu7.rename.LQFullEvents           139113010                       # Number of times rename has blocked due to LQ full (Count)
system.o3Cpu7.rename.SQFullEvents               71549                       # Number of times rename has blocked due to SQ full (Count)
system.o3Cpu7.rename.renamedOperands         91391263                       # Number of destination operands rename has renamed (Count)
system.o3Cpu7.rename.lookups                162057791                       # Number of register rename lookups that rename has made (Count)
system.o3Cpu7.rename.intLookups              53140224                       # Number of integer rename lookups (Count)
system.o3Cpu7.rename.fpLookups               22975480                       # Number of floating rename lookups (Count)
system.o3Cpu7.rename.committedMaps           90386613                       # Number of HB maps that are committed (Count)
system.o3Cpu7.rename.undoneMaps               1004170                       # Number of HB maps that are undone due to squashing (Count)
system.o3Cpu7.rename.serializing                 1980                       # count of serializing insts renamed (Count)
system.o3Cpu7.rename.tempSerializing             2092                       # count of temporary serializing insts renamed (Count)
system.o3Cpu7.rename.skidInsts               20292600                       # count of insts added to the skid buffer (Count)
system.o3Cpu7.rob.reads                     240459245                       # The number of ROB reads (Count)
system.o3Cpu7.rob.writes                    106479469                       # The number of ROB writes (Count)
system.o3Cpu7.thread_0.numInsts              28618664                       # Number of Instructions committed (Count)
system.o3Cpu7.thread_0.numOps                52722225                       # Number of Ops committed (Count)
system.o3Cpu7.thread_0.numMemRefs                   0                       # Number of Memory References (Count)
system.pc.bad_addr.power_state.pwrStateResidencyTicks::UNDEFINED  40286461400                       # Cumulative time (in ticks) in various power states (Tick)
system.pc.com_1.power_state.pwrStateResidencyTicks::UNDEFINED  40286461400                       # Cumulative time (in ticks) in various power states (Tick)
system.pc.default_bus.power_state.pwrStateResidencyTicks::UNDEFINED  40286461400                       # Cumulative time (in ticks) in various power states (Tick)
system.pc.empty_isa.power_state.pwrStateResidencyTicks::UNDEFINED  40286461400                       # Cumulative time (in ticks) in various power states (Tick)
system.pc.fake_com_2.power_state.pwrStateResidencyTicks::UNDEFINED  40286461400                       # Cumulative time (in ticks) in various power states (Tick)
system.pc.fake_com_3.power_state.pwrStateResidencyTicks::UNDEFINED  40286461400                       # Cumulative time (in ticks) in various power states (Tick)
system.pc.fake_com_4.power_state.pwrStateResidencyTicks::UNDEFINED  40286461400                       # Cumulative time (in ticks) in various power states (Tick)
system.pc.fake_floppy.power_state.pwrStateResidencyTicks::UNDEFINED  40286461400                       # Cumulative time (in ticks) in various power states (Tick)
system.pc.pci_host.power_state.pwrStateResidencyTicks::UNDEFINED  40286461400                       # Cumulative time (in ticks) in various power states (Tick)
system.pc.south_bridge.cmos.power_state.pwrStateResidencyTicks::UNDEFINED  40286461400                       # Cumulative time (in ticks) in various power states (Tick)
system.pc.south_bridge.dma1.power_state.pwrStateResidencyTicks::UNDEFINED  40286461400                       # Cumulative time (in ticks) in various power states (Tick)
system.pc.south_bridge.ide.disks0.IdeDisk.dmaReadFullPages            0                       # Number of full page size DMA reads (not PRD). (Count)
system.pc.south_bridge.ide.disks0.IdeDisk.dmaReadBytes            0                       # Number of bytes transfered via DMA reads (not PRD). (Byte)
system.pc.south_bridge.ide.disks0.IdeDisk.dmaReadTxs            0                       # Number of DMA read transactions (not PRD). (Count)
system.pc.south_bridge.ide.disks0.IdeDisk.dmaWriteFullPages            0                       # Number of full page size DMA writes. (Count)
system.pc.south_bridge.ide.disks0.IdeDisk.dmaWriteBytes            0                       # Number of bytes transfered via DMA writes. (Byte)
system.pc.south_bridge.ide.disks0.IdeDisk.dmaWriteTxs            0                       # Number of DMA write transactions. (Count)
system.pc.south_bridge.ide.disks1.IdeDisk.dmaReadFullPages            0                       # Number of full page size DMA reads (not PRD). (Count)
system.pc.south_bridge.ide.disks1.IdeDisk.dmaReadBytes            0                       # Number of bytes transfered via DMA reads (not PRD). (Byte)
system.pc.south_bridge.ide.disks1.IdeDisk.dmaReadTxs            0                       # Number of DMA read transactions (not PRD). (Count)
system.pc.south_bridge.ide.disks1.IdeDisk.dmaWriteFullPages            0                       # Number of full page size DMA writes. (Count)
system.pc.south_bridge.ide.disks1.IdeDisk.dmaWriteBytes            0                       # Number of bytes transfered via DMA writes. (Byte)
system.pc.south_bridge.ide.disks1.IdeDisk.dmaWriteTxs            0                       # Number of DMA write transactions. (Count)
system.pc.south_bridge.ide.power_state.pwrStateResidencyTicks::UNDEFINED  40286461400                       # Cumulative time (in ticks) in various power states (Tick)
system.pc.south_bridge.io_apic.power_state.pwrStateResidencyTicks::UNDEFINED  40286461400                       # Cumulative time (in ticks) in various power states (Tick)
system.pc.south_bridge.keyboard.power_state.pwrStateResidencyTicks::UNDEFINED  40286461400                       # Cumulative time (in ticks) in various power states (Tick)
system.pc.south_bridge.pic1.power_state.pwrStateResidencyTicks::UNDEFINED  40286461400                       # Cumulative time (in ticks) in various power states (Tick)
system.pc.south_bridge.pic2.power_state.pwrStateResidencyTicks::UNDEFINED  40286461400                       # Cumulative time (in ticks) in various power states (Tick)
system.pc.south_bridge.pit.power_state.pwrStateResidencyTicks::UNDEFINED  40286461400                       # Cumulative time (in ticks) in various power states (Tick)
system.pc.south_bridge.speaker.power_state.pwrStateResidencyTicks::UNDEFINED  40286461400                       # Cumulative time (in ticks) in various power states (Tick)
system.workload.inst.arm                            0                       # number of arm instructions executed (Count)
system.workload.inst.quiesce                        0                       # number of quiesce instructions executed (Count)

---------- End Simulation Statistics   ----------
