
---------- Begin Simulation Statistics ----------
simSeconds                                   0.032376                       # Number of seconds simulated (Second)
simTicks                                  32375924800                       # Number of ticks simulated (Tick)
finalTick                                95835463886200                       # Number of ticks from beginning of simulation (restored from checkpoints and never reset) (Tick)
simFreq                                  1000000000000                       # The number of ticks per simulated second ((Tick/Second))
hostSeconds                                  10489.71                       # Real time elapsed on the host (Second)
hostTickRate                                  3086447                       # The number of ticks simulated per host second (ticks/s) ((Tick/Second))
hostMemory                                   19977564                       # Number of bytes of host memory used (Byte)
simInsts                                    388366738                       # Number of instructions simulated (Count)
simOps                                      679913467                       # Number of ops (including micro ops) simulated (Count)
hostInstRate                                    37024                       # Simulator instruction rate (inst/s) ((Count/Second))
hostOpRate                                      64817                       # Simulator op (including micro ops) rate (op/s) ((Count/Second))
system.caches.delayHistogram::bucket_size            8                       # delay histogram for all message (Unspecified)
system.caches.delayHistogram::max_bucket           79                       # delay histogram for all message (Unspecified)
system.caches.delayHistogram::samples        21136627                       # delay histogram for all message (Unspecified)
system.caches.delayHistogram::mean           0.015109                       # delay histogram for all message (Unspecified)
system.caches.delayHistogram::stdev          0.352753                       # delay histogram for all message (Unspecified)
system.caches.delayHistogram             |    21115805     99.90%     99.90% |       20316      0.10%    100.00% |         211      0.00%    100.00% |          89      0.00%    100.00% |          61      0.00%    100.00% |          32      0.00%    100.00% |          47      0.00%    100.00% |          45      0.00%    100.00% |          21      0.00%    100.00% |           0      0.00%    100.00% # delay histogram for all message (Unspecified)
system.caches.delayHistogram::total          21136627                       # delay histogram for all message (Unspecified)
system.caches.m_outstandReqHistSeqr::bucket_size            2                       (Unspecified)
system.caches.m_outstandReqHistSeqr::max_bucket           19                       (Unspecified)
system.caches.m_outstandReqHistSeqr::samples    145812650                       (Unspecified)
system.caches.m_outstandReqHistSeqr::mean     1.047609                       (Unspecified)
system.caches.m_outstandReqHistSeqr::gmean     1.032311                       (Unspecified)
system.caches.m_outstandReqHistSeqr::stdev     0.249624                       (Unspecified)
system.caches.m_outstandReqHistSeqr      |   139293720     95.53%     95.53% |     6429766      4.41%     99.94% |       49537      0.03%     99.97% |       21306      0.01%     99.99% |        9675      0.01%     99.99% |        4713      0.00%    100.00% |        2220      0.00%    100.00% |        1045      0.00%    100.00% |         668      0.00%    100.00% |           0      0.00%    100.00% (Unspecified)
system.caches.m_outstandReqHistSeqr::total    145812650                       (Unspecified)
system.caches.m_latencyHistSeqr::bucket_size          512                       (Unspecified)
system.caches.m_latencyHistSeqr::max_bucket         5119                       (Unspecified)
system.caches.m_latencyHistSeqr::samples    145815768                       (Unspecified)
system.caches.m_latencyHistSeqr::mean        7.894619                       (Unspecified)
system.caches.m_latencyHistSeqr::gmean       1.127346                       (Unspecified)
system.caches.m_latencyHistSeqr::stdev      55.596129                       (Unspecified)
system.caches.m_latencyHistSeqr          |   145710826     99.93%     99.93% |       71286      0.05%     99.98% |         379      0.00%     99.98% |       15127      0.01%     99.99% |       17900      0.01%    100.00% |         246      0.00%    100.00% |           4      0.00%    100.00% |           0      0.00%    100.00% |           0      0.00%    100.00% |           0      0.00%    100.00% (Unspecified)
system.caches.m_latencyHistSeqr::total      145815768                       (Unspecified)
system.caches.m_hitLatencyHistSeqr::bucket_size          256                       (Unspecified)
system.caches.m_hitLatencyHistSeqr::max_bucket         2559                       (Unspecified)
system.caches.m_hitLatencyHistSeqr::samples    142751500                       (Unspecified)
system.caches.m_hitLatencyHistSeqr::mean     1.000565                       (Unspecified)
system.caches.m_hitLatencyHistSeqr::gmean     1.000028                       (Unspecified)
system.caches.m_hitLatencyHistSeqr::stdev     0.465852                       (Unspecified)
system.caches.m_hitLatencyHistSeqr       |   142751354    100.00%    100.00% |         136      0.00%    100.00% |           8      0.00%    100.00% |           0      0.00%    100.00% |           0      0.00%    100.00% |           0      0.00%    100.00% |           0      0.00%    100.00% |           2      0.00%    100.00% |           0      0.00%    100.00% |           0      0.00%    100.00% (Unspecified)
system.caches.m_hitLatencyHistSeqr::total    142751500                       (Unspecified)
system.caches.m_missLatencyHistSeqr::bucket_size          512                       (Unspecified)
system.caches.m_missLatencyHistSeqr::max_bucket         5119                       (Unspecified)
system.caches.m_missLatencyHistSeqr::samples      3064268                       (Unspecified)
system.caches.m_missLatencyHistSeqr::mean   329.059913                       (Unspecified)
system.caches.m_missLatencyHistSeqr::gmean   299.646957                       (Unspecified)
system.caches.m_missLatencyHistSeqr::stdev   204.237862                       (Unspecified)
system.caches.m_missLatencyHistSeqr      |     2959336     96.58%     96.58% |       71278      2.33%     98.90% |         379      0.01%     98.91% |       15125      0.49%     99.41% |       17900      0.58%     99.99% |         246      0.01%    100.00% |           4      0.00%    100.00% |           0      0.00%    100.00% |           0      0.00%    100.00% |           0      0.00%    100.00% (Unspecified)
system.caches.m_missLatencyHistSeqr::total      3064268                       (Unspecified)
system.caches.delayVCHist.vnet_0::bucket_size            8                       # delay histogram for vnet_0 (Unspecified)
system.caches.delayVCHist.vnet_0::max_bucket           79                       # delay histogram for vnet_0 (Unspecified)
system.caches.delayVCHist.vnet_0::samples      9064577                       # delay histogram for vnet_0 (Unspecified)
system.caches.delayVCHist.vnet_0::mean       0.023516                       # delay histogram for vnet_0 (Unspecified)
system.caches.delayVCHist.vnet_0::stdev      0.470626                       # delay histogram for vnet_0 (Unspecified)
system.caches.delayVCHist.vnet_0         |     9044752     99.78%     99.78% |       19495      0.22%    100.00% |          95      0.00%    100.00% |          45      0.00%    100.00% |          49      0.00%    100.00% |          28      0.00%    100.00% |          47      0.00%    100.00% |          45      0.00%    100.00% |          21      0.00%    100.00% |           0      0.00%    100.00% # delay histogram for vnet_0 (Unspecified)
system.caches.delayVCHist.vnet_0::total       9064577                       # delay histogram for vnet_0 (Unspecified)
system.caches.delayVCHist.vnet_1::bucket_size            8                       # delay histogram for vnet_1 (Unspecified)
system.caches.delayVCHist.vnet_1::max_bucket           79                       # delay histogram for vnet_1 (Unspecified)
system.caches.delayVCHist.vnet_1::samples     12024390                       # delay histogram for vnet_1 (Unspecified)
system.caches.delayVCHist.vnet_1::mean       0.008831                       # delay histogram for vnet_1 (Unspecified)
system.caches.delayVCHist.vnet_1::stdev      0.227309                       # delay histogram for vnet_1 (Unspecified)
system.caches.delayVCHist.vnet_1         |    12023393     99.99%     99.99% |         821      0.01%    100.00% |         116      0.00%    100.00% |          44      0.00%    100.00% |          12      0.00%    100.00% |           4      0.00%    100.00% |           0      0.00%    100.00% |           0      0.00%    100.00% |           0      0.00%    100.00% |           0      0.00%    100.00% # delay histogram for vnet_1 (Unspecified)
system.caches.delayVCHist.vnet_1::total      12024390                       # delay histogram for vnet_1 (Unspecified)
system.caches.delayVCHist.vnet_2::bucket_size            1                       # delay histogram for vnet_2 (Unspecified)
system.caches.delayVCHist.vnet_2::max_bucket            9                       # delay histogram for vnet_2 (Unspecified)
system.caches.delayVCHist.vnet_2::samples        47660                       # delay histogram for vnet_2 (Unspecified)
system.caches.delayVCHist.vnet_2::mean       0.000084                       # delay histogram for vnet_2 (Unspecified)
system.caches.delayVCHist.vnet_2::stdev      0.012956                       # delay histogram for vnet_2 (Unspecified)
system.caches.delayVCHist.vnet_2         |       47658    100.00%    100.00% |           0      0.00%    100.00% |           2      0.00%    100.00% |           0      0.00%    100.00% |           0      0.00%    100.00% |           0      0.00%    100.00% |           0      0.00%    100.00% |           0      0.00%    100.00% |           0      0.00%    100.00% |           0      0.00%    100.00% # delay histogram for vnet_2 (Unspecified)
system.caches.delayVCHist.vnet_2::total         47660                       # delay histogram for vnet_2 (Unspecified)
system.caches.L1Cache_Controller.Load    |     6074394     12.48%     12.48% |     6068648     12.46%     24.94% |     6092524     12.51%     37.45% |     6095320     12.52%     49.97% |     6074268     12.48%     62.45% |     6101549     12.53%     74.98% |     6075523     12.48%     87.46% |     6105729     12.54%    100.00% (Unspecified)
system.caches.L1Cache_Controller.Load::total     48687955                       (Unspecified)
system.caches.L1Cache_Controller.Ifetch  |       22344     15.49%     15.49% |       17208     11.93%     27.42% |       16723     11.59%     39.02% |       18224     12.64%     51.65% |       17774     12.32%     63.97% |       17306     12.00%     75.97% |       17597     12.20%     88.17% |       17057     11.83%    100.00% (Unspecified)
system.caches.L1Cache_Controller.Ifetch::total       144233                       (Unspecified)
system.caches.L1Cache_Controller.Store   |    12093274     12.47%     12.47% |    12087070     12.46%     24.93% |    12139428     12.52%     37.45% |    12140287     12.52%     49.97% |    12099367     12.48%     62.44% |    12156224     12.53%     74.98% |    12104045     12.48%     87.46% |    12163890     12.54%    100.00% (Unspecified)
system.caches.L1Cache_Controller.Store::total     96983585                       (Unspecified)
system.caches.L1Cache_Controller.Inv     |        4438      9.42%      9.42% |        6589     13.99%     23.41% |       11087     23.54%     46.95% |        4829     10.25%     57.20% |        6032     12.81%     70.01% |        4475      9.50%     79.51% |        5170     10.98%     90.49% |        4481      9.51%    100.00% (Unspecified)
system.caches.L1Cache_Controller.Inv::total        47101                       (Unspecified)
system.caches.L1Cache_Controller.L1_Replacement |      378924     12.72%     12.72% |      370092     12.43%     25.15% |      371669     12.48%     37.63% |      371755     12.48%     50.11% |      370445     12.44%     62.55% |      372254     12.50%     75.05% |      370610     12.44%     87.49% |      372493     12.51%    100.00% (Unspecified)
system.caches.L1Cache_Controller.L1_Replacement::total      2978242                       (Unspecified)
system.caches.L1Cache_Controller.Fwd_GETS |         197     35.24%     35.24% |         166     29.70%     64.94% |          30      5.37%     70.30% |          20      3.58%     73.88% |           0      0.00%     73.88% |          16      2.86%     76.74% |          59     10.55%     87.30% |          71     12.70%    100.00% (Unspecified)
system.caches.L1Cache_Controller.Fwd_GETS::total          559                       (Unspecified)
system.caches.L1Cache_Controller.Data    |          12    100.00%    100.00% |           0      0.00%    100.00% |           0      0.00%    100.00% |           0      0.00%    100.00% |           0      0.00%    100.00% |           0      0.00%    100.00% |           0      0.00%    100.00% |           0      0.00%    100.00% (Unspecified)
system.caches.L1Cache_Controller.Data::total           12                       (Unspecified)
system.caches.L1Cache_Controller.Data_Exclusive |      378425     12.47%     12.47% |      378425     12.47%     24.93% |      379883     12.52%     37.45% |      379952     12.52%     49.97% |      378639     12.47%     62.44% |      380431     12.53%     74.98% |      378844     12.48%     87.46% |      380695     12.54%    100.00% (Unspecified)
system.caches.L1Cache_Controller.Data_Exclusive::total      3035294                       (Unspecified)
system.caches.L1Cache_Controller.DataS_fromL1 |          51      9.12%      9.12% |          30      5.37%     14.49% |           3      0.54%     15.03% |          20      3.58%     18.60% |          26      4.65%     23.26% |         191     34.17%     57.42% |          75     13.42%     70.84% |         163     29.16%    100.00% (Unspecified)
system.caches.L1Cache_Controller.DataS_fromL1::total          559                       (Unspecified)
system.caches.L1Cache_Controller.Data_all_Acks |        4239     14.99%     14.99% |        3353     11.86%     26.85% |        3419     12.09%     38.94% |        3561     12.59%     51.53% |        3561     12.59%     64.12% |        3401     12.03%     76.15% |        3463     12.25%     88.40% |        3281     11.60%    100.00% (Unspecified)
system.caches.L1Cache_Controller.Data_all_Acks::total        28278                       (Unspecified)
system.caches.L1Cache_Controller.Ack     |         936    100.00%    100.00% |           0      0.00%    100.00% |           0      0.00%    100.00% |           0      0.00%    100.00% |           0      0.00%    100.00% |           0      0.00%    100.00% |           0      0.00%    100.00% |           0      0.00%    100.00% (Unspecified)
system.caches.L1Cache_Controller.Ack::total          936                       (Unspecified)
system.caches.L1Cache_Controller.Ack_all |         137    100.00%    100.00% |           0      0.00%    100.00% |           0      0.00%    100.00% |           0      0.00%    100.00% |           0      0.00%    100.00% |           0      0.00%    100.00% |           0      0.00%    100.00% |           0      0.00%    100.00% (Unspecified)
system.caches.L1Cache_Controller.Ack_all::total          137                       (Unspecified)
system.caches.L1Cache_Controller.WB_Ack  |      377650     12.78%     12.78% |      366613     12.40%     25.18% |      363699     12.30%     37.48% |      370030     12.52%     50.00% |      367532     12.43%     62.43% |      370893     12.55%     74.98% |      368550     12.47%     87.45% |      371063     12.55%    100.00% (Unspecified)
system.caches.L1Cache_Controller.WB_Ack::total      2956030                       (Unspecified)
system.caches.L1Cache_Controller.NP.Load |      378397     12.47%     12.47% |      378202     12.46%     24.93% |      379786     12.52%     37.45% |      379843     12.52%     49.97% |      378539     12.47%     62.44% |      380333     12.53%     74.98% |      378713     12.48%     87.46% |      380602     12.54%    100.00% (Unspecified)
system.caches.L1Cache_Controller.NP.Load::total      3034415                       (Unspecified)
system.caches.L1Cache_Controller.NP.Ifetch |         506     20.06%     20.06% |         311     12.33%     32.38% |         268     10.62%     43.00% |         296     11.73%     54.74% |         290     11.49%     66.23% |         278     11.02%     77.25% |         293     11.61%     88.86% |         281     11.14%    100.00% (Unspecified)
system.caches.L1Cache_Controller.NP.Ifetch::total         2523                       (Unspecified)
system.caches.L1Cache_Controller.NP.Store |         207     29.20%     29.20% |          76     10.72%     39.92% |          49      6.91%     46.83% |          79     11.14%     57.97% |          71     10.01%     67.98% |          78     11.00%     78.98% |          82     11.57%     90.55% |          67      9.45%    100.00% (Unspecified)
system.caches.L1Cache_Controller.NP.Store::total          709                       (Unspecified)
system.caches.L1Cache_Controller.NP.Inv  |          36      8.91%      8.91% |          54     13.37%     22.28% |          54     13.37%     35.64% |          66     16.34%     51.98% |          62     15.35%     67.33% |          66     16.34%     83.66% |          34      8.42%     92.08% |          32      7.92%    100.00% (Unspecified)
system.caches.L1Cache_Controller.NP.Inv::total          404                       (Unspecified)
system.caches.L1Cache_Controller.I.Load  |         810     11.73%     11.73% |         861     12.47%     24.20% |         842     12.20%     36.40% |         884     12.80%     49.20% |         891     12.91%     62.11% |         895     12.96%     75.07% |         882     12.78%     87.85% |         839     12.15%    100.00% (Unspecified)
system.caches.L1Cache_Controller.I.Load::total         6904                       (Unspecified)
system.caches.L1Cache_Controller.I.Ifetch |        1847     15.38%     15.38% |        1405     11.70%     27.08% |        1401     11.66%     38.74% |        1491     12.41%     51.15% |        1493     12.43%     63.58% |        1489     12.40%     75.98% |        1476     12.29%     88.27% |        1409     11.73%    100.00% (Unspecified)
system.caches.L1Cache_Controller.I.Ifetch::total        12011                       (Unspecified)
system.caches.L1Cache_Controller.I.Store |         961     12.67%     12.67% |         954     12.58%     25.24% |         959     12.64%     37.89% |         940     12.39%     50.28% |         943     12.43%     62.71% |         951     12.54%     75.24% |         937     12.35%     87.60% |         941     12.40%    100.00% (Unspecified)
system.caches.L1Cache_Controller.I.Store::total         7586                       (Unspecified)
system.caches.L1Cache_Controller.I.L1_Replacement |         547      3.04%      3.04% |        2977     16.53%     19.57% |        7477     41.53%     61.10% |        1215      6.75%     67.85% |        2420     13.44%     81.29% |         849      4.72%     86.00% |        1586      8.81%     94.81% |         934      5.19%    100.00% (Unspecified)
system.caches.L1Cache_Controller.I.L1_Replacement::total        18005                       (Unspecified)
system.caches.L1Cache_Controller.S.Load  |        8333     10.81%     10.81% |        9887     12.82%     23.63% |        9405     12.20%     35.82% |       10441     13.54%     49.36% |       10438     13.53%     62.89% |        9600     12.45%     75.34% |        9424     12.22%     87.56% |        9592     12.44%    100.00% (Unspecified)
system.caches.L1Cache_Controller.S.Load::total        77120                       (Unspecified)
system.caches.L1Cache_Controller.S.Ifetch |       19991     15.41%     15.41% |       15492     11.94%     27.36% |       15054     11.61%     38.96% |       16437     12.67%     51.64% |       15991     12.33%     63.97% |       15539     11.98%     75.95% |       15828     12.20%     88.15% |       15367     11.85%    100.00% (Unspecified)
system.caches.L1Cache_Controller.S.Ifetch::total       129699                       (Unspecified)
system.caches.L1Cache_Controller.S.Store |         125    100.00%    100.00% |           0      0.00%    100.00% |           0      0.00%    100.00% |           0      0.00%    100.00% |           0      0.00%    100.00% |           0      0.00%    100.00% |           0      0.00%    100.00% |           0      0.00%    100.00% (Unspecified)
system.caches.L1Cache_Controller.S.Store::total          125                       (Unspecified)
system.caches.L1Cache_Controller.S.Inv   |        2293     13.80%     13.80% |        2049     12.33%     26.14% |        2033     12.24%     38.38% |        2034     12.24%     50.62% |        2044     12.30%     62.92% |        2035     12.25%     75.17% |        2077     12.50%     87.68% |        2047     12.32%    100.00% (Unspecified)
system.caches.L1Cache_Controller.S.Inv::total        16612                       (Unspecified)
system.caches.L1Cache_Controller.S.L1_Replacement |         726     17.27%     17.27% |         502     11.94%     29.21% |         493     11.73%     40.94% |         509     12.11%     53.04% |         493     11.73%     64.77% |         511     12.16%     76.93% |         474     11.27%     88.20% |         496     11.80%    100.00% (Unspecified)
system.caches.L1Cache_Controller.S.L1_Replacement::total         4204                       (Unspecified)
system.caches.L1Cache_Controller.E.Load  |     5668890     12.46%     12.46% |     5669532     12.47%     24.93% |     5693409     12.52%     37.45% |     5693902     12.52%     49.96% |     5674578     12.48%     62.44% |     5701120     12.53%     74.98% |     5676950     12.48%     87.46% |     5705168     12.54%    100.00% (Unspecified)
system.caches.L1Cache_Controller.E.Load::total     45483549                       (Unspecified)
system.caches.L1Cache_Controller.E.Store |         236     18.69%     18.69% |         142     11.24%     29.93% |         145     11.48%     41.41% |         145     11.48%     52.89% |         147     11.64%     64.53% |         152     12.03%     76.56% |         159     12.59%     89.15% |         137     10.85%    100.00% (Unspecified)
system.caches.L1Cache_Controller.E.Store::total         1263                       (Unspecified)
system.caches.L1Cache_Controller.E.Inv   |         734      3.50%      3.50% |        3392     16.16%     19.65% |        7870     37.49%     57.14% |        1647      7.85%     64.99% |        2826     13.46%     78.45% |        1256      5.98%     84.43% |        1967      9.37%     93.80% |        1302      6.20%    100.00% (Unspecified)
system.caches.L1Cache_Controller.E.Inv::total        20994                       (Unspecified)
system.caches.L1Cache_Controller.E.L1_Replacement |      361370     12.29%     12.29% |      366545     12.47%     24.76% |      363661     12.37%     37.14% |      369951     12.59%     49.72% |      367480     12.50%     62.23% |      370829     12.62%     74.84% |      368470     12.54%     87.38% |      371011     12.62%    100.00% (Unspecified)
system.caches.L1Cache_Controller.E.L1_Replacement::total      2939317                       (Unspecified)
system.caches.L1Cache_Controller.E.Fwd_GETS |          60     14.22%     14.22% |         166     39.34%     53.55% |          30      7.11%     60.66% |          20      4.74%     65.40% |           0      0.00%     65.40% |          16      3.79%     69.19% |          59     13.98%     83.18% |          71     16.82%    100.00% (Unspecified)
system.caches.L1Cache_Controller.E.Fwd_GETS::total          422                       (Unspecified)
system.caches.L1Cache_Controller.M.Load  |       17964     20.90%     20.90% |       10166     11.83%     32.72% |        9082     10.56%     43.29% |       10250     11.92%     55.21% |        9822     11.43%     66.63% |        9601     11.17%     77.80% |        9554     11.11%     88.92% |        9528     11.08%    100.00% (Unspecified)
system.caches.L1Cache_Controller.M.Load::total        85967                       (Unspecified)
system.caches.L1Cache_Controller.M.Store |    12091745     12.47%     12.47% |    12085898     12.46%     24.93% |    12138275     12.52%     37.45% |    12139123     12.52%     49.97% |    12098206     12.48%     62.44% |    12155043     12.53%     74.98% |    12102867     12.48%     87.46% |    12162745     12.54%    100.00% (Unspecified)
system.caches.L1Cache_Controller.M.Store::total     96973902                       (Unspecified)
system.caches.L1Cache_Controller.M.Inv   |        1375     15.14%     15.14% |        1092     12.03%     27.17% |        1128     12.42%     39.60% |        1082     11.92%     51.51% |        1098     12.09%     63.61% |        1116     12.29%     75.90% |        1090     12.01%     87.91% |        1098     12.09%    100.00% (Unspecified)
system.caches.L1Cache_Controller.M.Inv::total         9079                       (Unspecified)
system.caches.L1Cache_Controller.M.L1_Replacement |       16281     97.41%     97.41% |          68      0.41%     97.82% |          38      0.23%     98.04% |          79      0.47%     98.52% |          52      0.31%     98.83% |          64      0.38%     99.21% |          80      0.48%     99.69% |          52      0.31%    100.00% (Unspecified)
system.caches.L1Cache_Controller.M.L1_Replacement::total        16714                       (Unspecified)
system.caches.L1Cache_Controller.M.Fwd_GETS |         137    100.00%    100.00% |           0      0.00%    100.00% |           0      0.00%    100.00% |           0      0.00%    100.00% |           0      0.00%    100.00% |           0      0.00%    100.00% |           0      0.00%    100.00% |           0      0.00%    100.00% (Unspecified)
system.caches.L1Cache_Controller.M.Fwd_GETS::total          137                       (Unspecified)
system.caches.L1Cache_Controller.IS.Inv  |           0      0.00%      0.00% |           2     16.67%     16.67% |           2     16.67%     33.33% |           0      0.00%     33.33% |           2     16.67%     50.00% |           2     16.67%     66.67% |           2     16.67%     83.33% |           2     16.67%    100.00% (Unspecified)
system.caches.L1Cache_Controller.IS.Inv::total           12                       (Unspecified)
system.caches.L1Cache_Controller.IS.L1_Replacement |           0      0.00%      0.00% |           0      0.00%      0.00% |           0      0.00%      0.00% |           1     50.00%     50.00% |           0      0.00%     50.00% |           1     50.00%    100.00% |           0      0.00%    100.00% |           0      0.00%    100.00% (Unspecified)
system.caches.L1Cache_Controller.IS.L1_Replacement::total            2                       (Unspecified)
system.caches.L1Cache_Controller.IS.Data_Exclusive |      378425     12.47%     12.47% |      378425     12.47%     24.93% |      379883     12.52%     37.45% |      379952     12.52%     49.97% |      378639     12.47%     62.44% |      380431     12.53%     74.98% |      378844     12.48%     87.46% |      380695     12.54%    100.00% (Unspecified)
system.caches.L1Cache_Controller.IS.Data_Exclusive::total      3035294                       (Unspecified)
system.caches.L1Cache_Controller.IS.DataS_fromL1 |          51      9.12%      9.12% |          30      5.37%     14.49% |           3      0.54%     15.03% |          20      3.58%     18.60% |          26      4.65%     23.26% |         191     34.17%     57.42% |          75     13.42%     70.84% |         163     29.16%    100.00% (Unspecified)
system.caches.L1Cache_Controller.IS.DataS_fromL1::total          559                       (Unspecified)
system.caches.L1Cache_Controller.IS.Data_all_Acks |        3083     15.43%     15.43% |        2321     11.61%     27.04% |        2409     12.06%     39.10% |        2542     12.72%     51.82% |        2545     12.74%     64.55% |        2370     11.86%     76.41% |        2442     12.22%     88.64% |        2271     11.36%    100.00% (Unspecified)
system.caches.L1Cache_Controller.IS.Data_all_Acks::total        19983                       (Unspecified)
system.caches.L1Cache_Controller.IM.Data |          12    100.00%    100.00% |           0      0.00%    100.00% |           0      0.00%    100.00% |           0      0.00%    100.00% |           0      0.00%    100.00% |           0      0.00%    100.00% |           0      0.00%    100.00% |           0      0.00%    100.00% (Unspecified)
system.caches.L1Cache_Controller.IM.Data::total           12                       (Unspecified)
system.caches.L1Cache_Controller.IM.Data_all_Acks |        1156     13.96%     13.96% |        1030     12.44%     26.39% |        1008     12.17%     38.56% |        1019     12.30%     50.86% |        1014     12.24%     63.11% |        1029     12.42%     75.53% |        1019     12.30%     87.83% |        1008     12.17%    100.00% (Unspecified)
system.caches.L1Cache_Controller.IM.Data_all_Acks::total         8283                       (Unspecified)
system.caches.L1Cache_Controller.SM.Ack  |         936    100.00%    100.00% |           0      0.00%    100.00% |           0      0.00%    100.00% |           0      0.00%    100.00% |           0      0.00%    100.00% |           0      0.00%    100.00% |           0      0.00%    100.00% |           0      0.00%    100.00% (Unspecified)
system.caches.L1Cache_Controller.SM.Ack::total          936                       (Unspecified)
system.caches.L1Cache_Controller.SM.Ack_all |         137    100.00%    100.00% |           0      0.00%    100.00% |           0      0.00%    100.00% |           0      0.00%    100.00% |           0      0.00%    100.00% |           0      0.00%    100.00% |           0      0.00%    100.00% |           0      0.00%    100.00% (Unspecified)
system.caches.L1Cache_Controller.SM.Ack_all::total          137                       (Unspecified)
system.caches.L1Cache_Controller.IS_I.Data_all_Acks |           0      0.00%      0.00% |           2     16.67%     16.67% |           2     16.67%     33.33% |           0      0.00%     33.33% |           2     16.67%     50.00% |           2     16.67%     66.67% |           2     16.67%     83.33% |           2     16.67%    100.00% (Unspecified)
system.caches.L1Cache_Controller.IS_I.Data_all_Acks::total           12                       (Unspecified)
system.caches.L1Cache_Controller.M_I.WB_Ack |      377650     12.78%     12.78% |      366613     12.40%     25.18% |      363699     12.30%     37.48% |      370030     12.52%     50.00% |      367532     12.43%     62.43% |      370893     12.55%     74.98% |      368550     12.47%     87.45% |      371063     12.55%    100.00% (Unspecified)
system.caches.L1Cache_Controller.M_I.WB_Ack::total      2956030                       (Unspecified)
system.caches.Directory_Controller.Fetch |        2388      0.08%      0.08% |     3041366     99.92%    100.00% (Unspecified)
system.caches.Directory_Controller.Fetch::total      3043754                       (Unspecified)
system.caches.Directory_Controller.Data  |         147      0.19%      0.19% |       76000     99.81%    100.00% (Unspecified)
system.caches.Directory_Controller.Data::total        76147                       (Unspecified)
system.caches.Directory_Controller.Memory_Data |        2388      0.08%      0.08% |     3041362     99.92%    100.00% (Unspecified)
system.caches.Directory_Controller.Memory_Data::total      3043750                       (Unspecified)
system.caches.Directory_Controller.Memory_Ack |         147      0.19%      0.19% |       76000     99.81%    100.00% (Unspecified)
system.caches.Directory_Controller.Memory_Ack::total        76147                       (Unspecified)
system.caches.Directory_Controller.CleanReplacement |        2197      0.08%      0.08% |     2834338     99.92%    100.00% (Unspecified)
system.caches.Directory_Controller.CleanReplacement::total      2836535                       (Unspecified)
system.caches.Directory_Controller.I.Fetch |        2388      0.08%      0.08% |     3041366     99.92%    100.00% (Unspecified)
system.caches.Directory_Controller.I.Fetch::total      3043754                       (Unspecified)
system.caches.Directory_Controller.M.Data |         147      0.19%      0.19% |       76000     99.81%    100.00% (Unspecified)
system.caches.Directory_Controller.M.Data::total        76147                       (Unspecified)
system.caches.Directory_Controller.M.CleanReplacement |        2197      0.08%      0.08% |     2834338     99.92%    100.00% (Unspecified)
system.caches.Directory_Controller.M.CleanReplacement::total      2836535                       (Unspecified)
system.caches.Directory_Controller.IM.Memory_Data |        2388      0.08%      0.08% |     3041362     99.92%    100.00% (Unspecified)
system.caches.Directory_Controller.IM.Memory_Data::total      3043750                       (Unspecified)
system.caches.Directory_Controller.MI.Memory_Ack |         147      0.19%      0.19% |       76000     99.81%    100.00% (Unspecified)
system.caches.Directory_Controller.MI.Memory_Ack::total        76147                       (Unspecified)
system.caches.L2Cache_Controller.L1_GET_INSTR |        1693     11.65%     11.65% |        2458     16.91%     28.56% |        1701     11.70%     40.26% |        1253      8.62%     48.88% |        1748     12.03%     60.91% |        1731     11.91%     72.82% |        1652     11.37%     84.18% |        2299     15.82%    100.00% (Unspecified)
system.caches.L2Cache_Controller.L1_GET_INSTR::total        14535                       (Unspecified)
system.caches.L2Cache_Controller.L1_GETS |      381259     12.54%     12.54% |      380449     12.51%     25.04% |      380098     12.50%     37.54% |      379933     12.49%     50.03% |      379804     12.49%     62.52% |      379801     12.49%     75.01% |      379986     12.49%     87.50% |      380067     12.50%    100.00% (Unspecified)
system.caches.L2Cache_Controller.L1_GETS::total      3041397                       (Unspecified)
system.caches.L2Cache_Controller.L1_GETX |        1262     14.73%     14.73% |        1096     12.79%     27.51% |         928     10.83%     38.34% |         990     11.55%     49.89% |         936     10.92%     60.82% |        1175     13.71%     74.53% |        1060     12.37%     86.90% |        1123     13.10%    100.00% (Unspecified)
system.caches.L2Cache_Controller.L1_GETX::total         8570                       (Unspecified)
system.caches.L2Cache_Controller.L1_UPGRADE |          56     44.09%     44.09% |          33     25.98%     70.08% |           0      0.00%     70.08% |           0      0.00%     70.08% |           0      0.00%     70.08% |           0      0.00%     70.08% |          38     29.92%    100.00% |           0      0.00%    100.00% (Unspecified)
system.caches.L2Cache_Controller.L1_UPGRADE::total          127                       (Unspecified)
system.caches.L2Cache_Controller.L1_PUTX |      369556     12.50%     12.50% |      369570     12.50%     25.00% |      369401     12.50%     37.50% |      369538     12.50%     50.00% |      369521     12.50%     62.50% |      369479     12.50%     75.00% |      369509     12.50%     87.50% |      369457     12.50%    100.00% (Unspecified)
system.caches.L2Cache_Controller.L1_PUTX::total      2956031                       (Unspecified)
system.caches.L2Cache_Controller.L2_Replacement |        8553     12.67%     12.67% |        8446     12.51%     25.18% |        8424     12.48%     37.66% |        8415     12.47%     50.13% |        8390     12.43%     62.56% |        8416     12.47%     75.03% |        8388     12.43%     87.45% |        8469     12.55%    100.00% (Unspecified)
system.caches.L2Cache_Controller.L2_Replacement::total        67501                       (Unspecified)
system.caches.L2Cache_Controller.L2_Replacement_clean |      355761     12.50%     12.50% |      355728     12.50%     25.01% |      355417     12.49%     37.50% |      355548     12.50%     50.00% |      355554     12.50%     62.49% |      355823     12.51%     75.00% |      355634     12.50%     87.50% |      355717     12.50%    100.00% (Unspecified)
system.caches.L2Cache_Controller.L2_Replacement_clean::total      2845182                       (Unspecified)
system.caches.L2Cache_Controller.Mem_Data |      380697     12.51%     12.51% |      380557     12.50%     25.01% |      380225     12.49%     37.50% |      380347     12.50%     50.00% |      380325     12.50%     62.49% |      380623     12.51%     75.00% |      380406     12.50%     87.50% |      380570     12.50%    100.00% (Unspecified)
system.caches.L2Cache_Controller.Mem_Data::total      3043750                       (Unspecified)
system.caches.L2Cache_Controller.Mem_Ack |      364314     12.51%     12.51% |      364174     12.50%     25.01% |      363841     12.49%     37.50% |      363963     12.50%     50.00% |      363943     12.50%     62.49% |      364239     12.51%     75.00% |      364022     12.50%     87.50% |      364186     12.50%    100.00% (Unspecified)
system.caches.L2Cache_Controller.Mem_Ack::total      2912682                       (Unspecified)
system.caches.L2Cache_Controller.WB_Data |        1281     13.90%     13.90% |        1109     12.03%     25.93% |         936     10.16%     36.09% |        1123     12.19%     48.27% |         944     10.24%     58.52% |        1355     14.70%     73.22% |        1165     12.64%     85.86% |        1303     14.14%    100.00% (Unspecified)
system.caches.L2Cache_Controller.WB_Data::total         9216                       (Unspecified)
system.caches.L2Cache_Controller.WB_Data_clean |          99     23.46%     23.46% |          60     14.22%     37.68% |          74     17.54%     55.21% |          44     10.43%     65.64% |          38      9.00%     74.64% |          31      7.35%     81.99% |          26      6.16%     88.15% |          50     11.85%    100.00% (Unspecified)
system.caches.L2Cache_Controller.WB_Data_clean::total          422                       (Unspecified)
system.caches.L2Cache_Controller.Ack     |        2124     15.49%     15.49% |        1791     13.06%     28.56% |        1892     13.80%     42.36% |        1337      9.75%     52.11% |        1717     12.52%     64.63% |        1681     12.26%     76.89% |        1542     11.25%     88.14% |        1626     11.86%    100.00% (Unspecified)
system.caches.L2Cache_Controller.Ack::total        13710                       (Unspecified)
system.caches.L2Cache_Controller.Ack_all |        3072     13.15%     13.15% |        3110     13.31%     26.46% |        2886     12.35%     38.81% |        2792     11.95%     50.76% |        2940     12.58%     63.35% |        2816     12.05%     75.40% |        2876     12.31%     87.71% |        2872     12.29%    100.00% (Unspecified)
system.caches.L2Cache_Controller.Ack_all::total        23364                       (Unspecified)
system.caches.L2Cache_Controller.Unblock |         165     29.52%     29.52% |          93     16.64%     46.15% |          74     13.24%     59.39% |          44      7.87%     67.26% |          38      6.80%     74.06% |          31      5.55%     79.61% |          64     11.45%     91.06% |          50      8.94%    100.00% (Unspecified)
system.caches.L2Cache_Controller.Unblock::total          559                       (Unspecified)
system.caches.L2Cache_Controller.Exclusive_Unblock |      380745     12.51%     12.51% |      380662     12.51%     25.02% |      380108     12.49%     37.50% |      380407     12.50%     50.00% |      380284     12.49%     62.50% |      380541     12.50%     75.00% |      380449     12.50%     87.50% |      380518     12.50%    100.00% (Unspecified)
system.caches.L2Cache_Controller.Exclusive_Unblock::total      3043714                       (Unspecified)
system.caches.L2Cache_Controller.NP.L1_GET_INSTR |         259     13.17%     13.17% |         252     12.81%     25.98% |         251     12.76%     38.74% |         197     10.02%     48.75% |         259     13.17%     61.92% |         253     12.86%     74.78% |         242     12.30%     87.09% |         254     12.91%    100.00% (Unspecified)
system.caches.L2Cache_Controller.NP.L1_GET_INSTR::total         1967                       (Unspecified)
system.caches.L2Cache_Controller.NP.L1_GETS |      379372     12.50%     12.50% |      379305     12.50%     25.01% |      379101     12.50%     37.50% |      379236     12.50%     50.00% |      379196     12.50%     62.50% |      379277     12.50%     75.00% |      379186     12.50%     87.50% |      379308     12.50%    100.00% (Unspecified)
system.caches.L2Cache_Controller.NP.L1_GETS::total      3033981                       (Unspecified)
system.caches.L2Cache_Controller.NP.L1_GETX |        1067     13.67%     13.67% |        1001     12.82%     26.49% |         873     11.18%     37.67% |         914     11.71%     49.38% |         873     11.18%     60.56% |        1093     14.00%     74.56% |         978     12.53%     87.09% |        1008     12.91%    100.00% (Unspecified)
system.caches.L2Cache_Controller.NP.L1_GETX::total         7807                       (Unspecified)
system.caches.L2Cache_Controller.SS.L1_GET_INSTR |        1406     11.36%     11.36% |        2189     17.68%     29.04% |        1420     11.47%     40.52% |        1030      8.32%     48.84% |        1472     11.89%     60.73% |        1463     11.82%     72.55% |        1386     11.20%     83.75% |        2012     16.25%    100.00% (Unspecified)
system.caches.L2Cache_Controller.SS.L1_GET_INSTR::total        12378                       (Unspecified)
system.caches.L2Cache_Controller.SS.L1_GETS |        1590     29.55%     29.55% |         785     14.59%     44.14% |         800     14.87%     59.00% |         423      7.86%     66.86% |         373      6.93%     73.80% |         375      6.97%     80.77% |         470      8.73%     89.50% |         565     10.50%    100.00% (Unspecified)
system.caches.L2Cache_Controller.SS.L1_GETS::total         5381                       (Unspecified)
system.caches.L2Cache_Controller.SS.L1_GETX |          10     83.33%     83.33% |           0      0.00%     83.33% |           0      0.00%     83.33% |           0      0.00%     83.33% |           0      0.00%     83.33% |           0      0.00%     83.33% |           2     16.67%    100.00% |           0      0.00%    100.00% (Unspecified)
system.caches.L2Cache_Controller.SS.L1_GETX::total           12                       (Unspecified)
system.caches.L2Cache_Controller.SS.L1_UPGRADE |          56     44.80%     44.80% |          33     26.40%     71.20% |           0      0.00%     71.20% |           0      0.00%     71.20% |           0      0.00%     71.20% |           0      0.00%     71.20% |          36     28.80%    100.00% |           0      0.00%    100.00% (Unspecified)
system.caches.L2Cache_Controller.SS.L1_UPGRADE::total          125                       (Unspecified)
system.caches.L2Cache_Controller.SS.L2_Replacement_clean |         361     15.23%     15.23% |         311     13.12%     28.35% |         323     13.63%     41.98% |         237     10.00%     51.98% |         291     12.28%     64.26% |         278     11.73%     75.99% |         265     11.18%     87.17% |         304     12.83%    100.00% (Unspecified)
system.caches.L2Cache_Controller.SS.L2_Replacement_clean::total         2370                       (Unspecified)
system.caches.L2Cache_Controller.M.L1_GET_INSTR |           0      0.00%      0.00% |           2     25.00%     25.00% |           1     12.50%     37.50% |           0      0.00%     37.50% |           0      0.00%     37.50% |           1     12.50%     50.00% |           2     25.00%     75.00% |           2     25.00%    100.00% (Unspecified)
system.caches.L2Cache_Controller.M.L1_GET_INSTR::total            8                       (Unspecified)
system.caches.L2Cache_Controller.M.L1_GETS |         105      7.85%      7.85% |         256     19.13%     26.98% |         119      8.89%     35.87% |         220     16.44%     52.32% |         195     14.57%     66.89% |         117      8.74%     75.64% |         201     15.02%     90.66% |         125      9.34%    100.00% (Unspecified)
system.caches.L2Cache_Controller.M.L1_GETS::total         1338                       (Unspecified)
system.caches.L2Cache_Controller.M.L1_GETX |         142     29.83%     29.83% |          71     14.92%     44.75% |          18      3.78%     48.53% |          40      8.40%     56.93% |          24      5.04%     61.97% |          54     11.34%     73.32% |          46      9.66%     82.98% |          81     17.02%    100.00% (Unspecified)
system.caches.L2Cache_Controller.M.L1_GETX::total          476                       (Unspecified)
system.caches.L2Cache_Controller.M.L2_Replacement |        8420     12.56%     12.56% |        8378     12.49%     25.05% |        8406     12.53%     37.58% |        8375     12.49%     50.07% |        8368     12.48%     62.55% |        8368     12.48%     75.03% |        8359     12.46%     87.49% |        8387     12.51%    100.00% (Unspecified)
system.caches.L2Cache_Controller.M.L2_Replacement::total        67061                       (Unspecified)
system.caches.L2Cache_Controller.M.L2_Replacement_clean |      351607     12.50%     12.50% |      351610     12.50%     25.00% |      351613     12.50%     37.50% |      351673     12.50%     50.00% |      351692     12.50%     62.50% |      351700     12.50%     75.00% |      351660     12.50%     87.50% |      351624     12.50%    100.00% (Unspecified)
system.caches.L2Cache_Controller.M.L2_Replacement_clean::total      2813179                       (Unspecified)
system.caches.L2Cache_Controller.MT.L1_GETS |         165     29.52%     29.52% |          93     16.64%     46.15% |          74     13.24%     59.39% |          44      7.87%     67.26% |          38      6.80%     74.06% |          31      5.55%     79.61% |          64     11.45%     91.06% |          50      8.94%    100.00% (Unspecified)
system.caches.L2Cache_Controller.MT.L1_GETS::total          559                       (Unspecified)
system.caches.L2Cache_Controller.MT.L1_PUTX |      369556     12.50%     12.50% |      369570     12.50%     25.00% |      369401     12.50%     37.50% |      369538     12.50%     50.00% |      369521     12.50%     62.50% |      369479     12.50%     75.00% |      369509     12.50%     87.50% |      369457     12.50%    100.00% (Unspecified)
system.caches.L2Cache_Controller.MT.L1_PUTX::total      2956031                       (Unspecified)
system.caches.L2Cache_Controller.MT.L2_Replacement |         133     30.23%     30.23% |          68     15.45%     45.68% |          18      4.09%     49.77% |          40      9.09%     58.86% |          22      5.00%     63.86% |          48     10.91%     74.77% |          29      6.59%     81.36% |          82     18.64%    100.00% (Unspecified)
system.caches.L2Cache_Controller.MT.L2_Replacement::total          440                       (Unspecified)
system.caches.L2Cache_Controller.MT.L2_Replacement_clean |        3793     12.80%     12.80% |        3807     12.85%     25.65% |        3481     11.75%     37.39% |        3638     12.28%     49.67% |        3571     12.05%     61.72% |        3845     12.98%     74.70% |        3709     12.52%     87.21% |        3789     12.79%    100.00% (Unspecified)
system.caches.L2Cache_Controller.MT.L2_Replacement_clean::total        29633                       (Unspecified)
system.caches.L2Cache_Controller.M_I.L1_GET_INSTR |           0      0.00%      0.00% |           0      0.00%      0.00% |           1    100.00%    100.00% |           0      0.00%    100.00% |           0      0.00%    100.00% |           0      0.00%    100.00% |           0      0.00%    100.00% |           0      0.00%    100.00% (Unspecified)
system.caches.L2Cache_Controller.M_I.L1_GET_INSTR::total            1                       (Unspecified)
system.caches.L2Cache_Controller.M_I.L1_GETX |          43     15.64%     15.64% |          24      8.73%     24.36% |          37     13.45%     37.82% |          36     13.09%     50.91% |          39     14.18%     65.09% |          28     10.18%     75.27% |          34     12.36%     87.64% |          34     12.36%    100.00% (Unspecified)
system.caches.L2Cache_Controller.M_I.L1_GETX::total          275                       (Unspecified)
system.caches.L2Cache_Controller.M_I.Mem_Ack |      364314     12.51%     12.51% |      364174     12.50%     25.01% |      363841     12.49%     37.50% |      363963     12.50%     50.00% |      363943     12.50%     62.49% |      364239     12.51%     75.00% |      364022     12.50%     87.50% |      364186     12.50%    100.00% (Unspecified)
system.caches.L2Cache_Controller.M_I.Mem_Ack::total      2912682                       (Unspecified)
system.caches.L2Cache_Controller.MT_I.WB_Data |         130     30.02%     30.02% |          66     15.24%     45.27% |          18      4.16%     49.42% |          39      9.01%     58.43% |          21      4.85%     63.28% |          48     11.09%     74.36% |          29      6.70%     81.06% |          82     18.94%    100.00% (Unspecified)
system.caches.L2Cache_Controller.MT_I.WB_Data::total          433                       (Unspecified)
system.caches.L2Cache_Controller.MT_I.Ack_all |           3     42.86%     42.86% |           2     28.57%     71.43% |           0      0.00%     71.43% |           1     14.29%     85.71% |           1     14.29%    100.00% |           0      0.00%    100.00% |           0      0.00%    100.00% |           0      0.00%    100.00% (Unspecified)
system.caches.L2Cache_Controller.MT_I.Ack_all::total            7                       (Unspecified)
system.caches.L2Cache_Controller.MCT_I.WB_Data |        1085     12.55%     12.55% |        1010     11.68%     24.23% |         918     10.62%     34.85% |        1084     12.54%     47.39% |         923     10.68%     58.06% |        1307     15.12%     73.18% |        1098     12.70%     85.88% |        1221     14.12%    100.00% (Unspecified)
system.caches.L2Cache_Controller.MCT_I.WB_Data::total         8646                       (Unspecified)
system.caches.L2Cache_Controller.MCT_I.Ack_all |        2708     12.90%     12.90% |        2797     13.33%     26.23% |        2563     12.21%     38.44% |        2554     12.17%     50.61% |        2648     12.62%     63.23% |        2538     12.09%     75.32% |        2611     12.44%     87.76% |        2568     12.24%    100.00% (Unspecified)
system.caches.L2Cache_Controller.MCT_I.Ack_all::total        20987                       (Unspecified)
system.caches.L2Cache_Controller.I_I.Ack |        2124     15.49%     15.49% |        1791     13.06%     28.56% |        1892     13.80%     42.36% |        1337      9.75%     52.11% |        1717     12.52%     64.63% |        1681     12.26%     76.89% |        1542     11.25%     88.14% |        1626     11.86%    100.00% (Unspecified)
system.caches.L2Cache_Controller.I_I.Ack::total        13710                       (Unspecified)
system.caches.L2Cache_Controller.I_I.Ack_all |         361     15.23%     15.23% |         311     13.12%     28.35% |         323     13.63%     41.98% |         237     10.00%     51.98% |         291     12.28%     64.26% |         278     11.73%     75.99% |         265     11.18%     87.17% |         304     12.83%    100.00% (Unspecified)
system.caches.L2Cache_Controller.I_I.Ack_all::total         2370                       (Unspecified)
system.caches.L2Cache_Controller.ISS.L1_GETS |           6     30.00%     30.00% |           3     15.00%     45.00% |           3     15.00%     60.00% |           3     15.00%     75.00% |           1      5.00%     80.00% |           0      0.00%     80.00% |           0      0.00%     80.00% |           4     20.00%    100.00% (Unspecified)
system.caches.L2Cache_Controller.ISS.L1_GETS::total           20                       (Unspecified)
system.caches.L2Cache_Controller.ISS.Mem_Data |      379365     12.50%     12.50% |      379301     12.50%     25.01% |      379098     12.50%     37.50% |      379233     12.50%     50.00% |      379192     12.50%     62.50% |      379277     12.50%     75.00% |      379186     12.50%     87.50% |      379304     12.50%    100.00% (Unspecified)
system.caches.L2Cache_Controller.ISS.Mem_Data::total      3033956                       (Unspecified)
system.caches.L2Cache_Controller.IS.L1_GET_INSTR |          28     15.47%     15.47% |          15      8.29%     23.76% |          28     15.47%     39.23% |          26     14.36%     53.59% |          17      9.39%     62.98% |          14      7.73%     70.72% |          22     12.15%     82.87% |          31     17.13%    100.00% (Unspecified)
system.caches.L2Cache_Controller.IS.L1_GET_INSTR::total          181                       (Unspecified)
system.caches.L2Cache_Controller.IS.L1_GETS |          21     52.50%     52.50% |           6     15.00%     67.50% |           1      2.50%     70.00% |           1      2.50%     72.50% |           0      0.00%     72.50% |           0      0.00%     72.50% |           0      0.00%     72.50% |          11     27.50%    100.00% (Unspecified)
system.caches.L2Cache_Controller.IS.L1_GETS::total           40                       (Unspecified)
system.caches.L2Cache_Controller.IS.Mem_Data |         265     13.34%     13.34% |         255     12.83%     26.17% |         254     12.78%     38.95% |         200     10.07%     49.02% |         260     13.09%     62.10% |         253     12.73%     74.84% |         242     12.18%     87.02% |         258     12.98%    100.00% (Unspecified)
system.caches.L2Cache_Controller.IS.Mem_Data::total         1987                       (Unspecified)
system.caches.L2Cache_Controller.IM.Mem_Data |        1067     13.67%     13.67% |        1001     12.82%     26.49% |         873     11.18%     37.67% |         914     11.71%     49.38% |         873     11.18%     60.56% |        1093     14.00%     74.56% |         978     12.53%     87.09% |        1008     12.91%    100.00% (Unspecified)
system.caches.L2Cache_Controller.IM.Mem_Data::total         7807                       (Unspecified)
system.caches.L2Cache_Controller.SS_MB.L1_GETS |           0      0.00%      0.00% |           0      0.00%      0.00% |           0      0.00%      0.00% |           0      0.00%      0.00% |           0      0.00%      0.00% |           0      0.00%      0.00% |          35    100.00%    100.00% |           0      0.00%    100.00% (Unspecified)
system.caches.L2Cache_Controller.SS_MB.L1_GETS::total           35                       (Unspecified)
system.caches.L2Cache_Controller.SS_MB.Exclusive_Unblock |          66     48.18%     48.18% |          33     24.09%     72.26% |           0      0.00%     72.26% |           0      0.00%     72.26% |           0      0.00%     72.26% |           0      0.00%     72.26% |          38     27.74%    100.00% |           0      0.00%    100.00% (Unspecified)
system.caches.L2Cache_Controller.SS_MB.Exclusive_Unblock::total          137                       (Unspecified)
system.caches.L2Cache_Controller.MT_MB.L1_GETS |           0      0.00%      0.00% |           0      0.00%      0.00% |           0      0.00%      0.00% |           0      0.00%      0.00% |           1    100.00%    100.00% |           0      0.00%    100.00% |           0      0.00%    100.00% |           0      0.00%    100.00% (Unspecified)
system.caches.L2Cache_Controller.MT_MB.L1_GETS::total            1                       (Unspecified)
system.caches.L2Cache_Controller.MT_MB.Exclusive_Unblock |      380679     12.51%     12.51% |      380629     12.51%     25.01% |      380108     12.49%     37.50% |      380407     12.50%     50.00% |      380284     12.49%     62.50% |      380541     12.50%     75.00% |      380411     12.50%     87.50% |      380518     12.50%    100.00% (Unspecified)
system.caches.L2Cache_Controller.MT_MB.Exclusive_Unblock::total      3043577                       (Unspecified)
system.caches.L2Cache_Controller.MT_IIB.L1_GETS |           0      0.00%      0.00% |           0      0.00%      0.00% |           0      0.00%      0.00% |           6     15.00%     15.00% |           0      0.00%     15.00% |           1      2.50%     17.50% |          30     75.00%     92.50% |           3      7.50%    100.00% (Unspecified)
system.caches.L2Cache_Controller.MT_IIB.L1_GETS::total           40                       (Unspecified)
system.caches.L2Cache_Controller.MT_IIB.WB_Data |          65     47.79%     47.79% |          33     24.26%     72.06% |           0      0.00%     72.06% |           0      0.00%     72.06% |           0      0.00%     72.06% |           0      0.00%     72.06% |          38     27.94%    100.00% |           0      0.00%    100.00% (Unspecified)
system.caches.L2Cache_Controller.MT_IIB.WB_Data::total          136                       (Unspecified)
system.caches.L2Cache_Controller.MT_IIB.WB_Data_clean |          99     23.46%     23.46% |          60     14.22%     37.68% |          74     17.54%     55.21% |          44     10.43%     65.64% |          38      9.00%     74.64% |          31      7.35%     81.99% |          26      6.16%     88.15% |          50     11.85%    100.00% (Unspecified)
system.caches.L2Cache_Controller.MT_IIB.WB_Data_clean::total          422                       (Unspecified)
system.caches.L2Cache_Controller.MT_IIB.Unblock |           1    100.00%    100.00% |           0      0.00%    100.00% |           0      0.00%    100.00% |           0      0.00%    100.00% |           0      0.00%    100.00% |           0      0.00%    100.00% |           0      0.00%    100.00% |           0      0.00%    100.00% (Unspecified)
system.caches.L2Cache_Controller.MT_IIB.Unblock::total            1                       (Unspecified)
system.caches.L2Cache_Controller.MT_IB.WB_Data |           1    100.00%    100.00% |           0      0.00%    100.00% |           0      0.00%    100.00% |           0      0.00%    100.00% |           0      0.00%    100.00% |           0      0.00%    100.00% |           0      0.00%    100.00% |           0      0.00%    100.00% (Unspecified)
system.caches.L2Cache_Controller.MT_IB.WB_Data::total            1                       (Unspecified)
system.caches.L2Cache_Controller.MT_SB.L1_GETS |           0      0.00%      0.00% |           1     50.00%     50.00% |           0      0.00%     50.00% |           0      0.00%     50.00% |           0      0.00%     50.00% |           0      0.00%     50.00% |           0      0.00%     50.00% |           1     50.00%    100.00% (Unspecified)
system.caches.L2Cache_Controller.MT_SB.L1_GETS::total            2                       (Unspecified)
system.caches.L2Cache_Controller.MT_SB.L1_UPGRADE |           0      0.00%      0.00% |           0      0.00%      0.00% |           0      0.00%      0.00% |           0      0.00%      0.00% |           0      0.00%      0.00% |           0      0.00%      0.00% |           2    100.00%    100.00% |           0      0.00%    100.00% (Unspecified)
system.caches.L2Cache_Controller.MT_SB.L1_UPGRADE::total            2                       (Unspecified)
system.caches.L2Cache_Controller.MT_SB.Unblock |         164     29.39%     29.39% |          93     16.67%     46.06% |          74     13.26%     59.32% |          44      7.89%     67.20% |          38      6.81%     74.01% |          31      5.56%     79.57% |          64     11.47%     91.04% |          50      8.96%    100.00% (Unspecified)
system.caches.L2Cache_Controller.MT_SB.Unblock::total          558                       (Unspecified)
system.caches.RequestType.LD.latency_hist_seqr::bucket_size          512                       (Unspecified)
system.caches.RequestType.LD.latency_hist_seqr::max_bucket         5119                       (Unspecified)
system.caches.RequestType.LD.latency_hist_seqr::samples     48687950                       (Unspecified)
system.caches.RequestType.LD.latency_hist_seqr::mean    21.608941                       (Unspecified)
system.caches.RequestType.LD.latency_hist_seqr::gmean     1.429348                       (Unspecified)
system.caches.RequestType.LD.latency_hist_seqr::stdev    94.677553                       (Unspecified)
system.caches.RequestType.LD.latency_hist_seqr |    48583158     99.78%     99.78% |       71157      0.15%     99.93% |         375      0.00%     99.93% |       15115      0.03%     99.96% |       17895      0.04%    100.00% |         246      0.00%    100.00% |           4      0.00%    100.00% |           0      0.00%    100.00% |           0      0.00%    100.00% |           0      0.00%    100.00% (Unspecified)
system.caches.RequestType.LD.latency_hist_seqr::total     48687950                       (Unspecified)
system.caches.RequestType.LD.hit_latency_hist_seqr::bucket_size            1                       (Unspecified)
system.caches.RequestType.LD.hit_latency_hist_seqr::max_bucket            9                       (Unspecified)
system.caches.RequestType.LD.hit_latency_hist_seqr::samples     45646636                       (Unspecified)
system.caches.RequestType.LD.hit_latency_hist_seqr::mean     1.000007                       (Unspecified)
system.caches.RequestType.LD.hit_latency_hist_seqr::gmean     1.000005                       (Unspecified)
system.caches.RequestType.LD.hit_latency_hist_seqr::stdev     0.002660                       (Unspecified)
system.caches.RequestType.LD.hit_latency_hist_seqr |           0      0.00%      0.00% |    45646313    100.00%    100.00% |         323      0.00%    100.00% |           0      0.00%    100.00% |           0      0.00%    100.00% |           0      0.00%    100.00% |           0      0.00%    100.00% |           0      0.00%    100.00% |           0      0.00%    100.00% |           0      0.00%    100.00% (Unspecified)
system.caches.RequestType.LD.hit_latency_hist_seqr::total     45646636                       (Unspecified)
system.caches.RequestType.LD.miss_latency_hist_seqr::bucket_size          512                       (Unspecified)
system.caches.RequestType.LD.miss_latency_hist_seqr::max_bucket         5119                       (Unspecified)
system.caches.RequestType.LD.miss_latency_hist_seqr::samples      3041314                       (Unspecified)
system.caches.RequestType.LD.miss_latency_hist_seqr::mean   330.925408                       (Unspecified)
system.caches.RequestType.LD.miss_latency_hist_seqr::gmean   304.472731                       (Unspecified)
system.caches.RequestType.LD.miss_latency_hist_seqr::stdev   203.591345                       (Unspecified)
system.caches.RequestType.LD.miss_latency_hist_seqr |     2936522     96.55%     96.55% |       71157      2.34%     98.89% |         375      0.01%     98.91% |       15115      0.50%     99.40% |       17895      0.59%     99.99% |         246      0.01%    100.00% |           4      0.00%    100.00% |           0      0.00%    100.00% |           0      0.00%    100.00% |           0      0.00%    100.00% (Unspecified)
system.caches.RequestType.LD.miss_latency_hist_seqr::total      3041314                       (Unspecified)
system.caches.RequestType.ST.latency_hist_seqr::bucket_size          256                       (Unspecified)
system.caches.RequestType.ST.latency_hist_seqr::max_bucket         2559                       (Unspecified)
system.caches.RequestType.ST.latency_hist_seqr::samples     48573396                       (Unspecified)
system.caches.RequestType.ST.latency_hist_seqr::mean     1.005331                       (Unspecified)
system.caches.RequestType.ST.latency_hist_seqr::gmean     1.000152                       (Unspecified)
system.caches.RequestType.ST.latency_hist_seqr::stdev     1.442202                       (Unspecified)
system.caches.RequestType.ST.latency_hist_seqr |    48572953    100.00%    100.00% |         404      0.00%    100.00% |          31      0.00%    100.00% |           4      0.00%    100.00% |           0      0.00%    100.00% |           0      0.00%    100.00% |           0      0.00%    100.00% |           2      0.00%    100.00% |           2      0.00%    100.00% |           0      0.00%    100.00% (Unspecified)
system.caches.RequestType.ST.latency_hist_seqr::total     48573396                       (Unspecified)
system.caches.RequestType.ST.hit_latency_hist_seqr::bucket_size           64                       (Unspecified)
system.caches.RequestType.ST.hit_latency_hist_seqr::max_bucket          639                       (Unspecified)
system.caches.RequestType.ST.hit_latency_hist_seqr::samples     48572117                       (Unspecified)
system.caches.RequestType.ST.hit_latency_hist_seqr::mean     1.000320                       (Unspecified)
system.caches.RequestType.ST.hit_latency_hist_seqr::gmean     1.000031                       (Unspecified)
system.caches.RequestType.ST.hit_latency_hist_seqr::stdev     0.286804                       (Unspecified)
system.caches.RequestType.ST.hit_latency_hist_seqr |    48572057    100.00%    100.00% |          18      0.00%    100.00% |          13      0.00%    100.00% |           3      0.00%    100.00% |          12      0.00%    100.00% |           6      0.00%    100.00% |           6      0.00%    100.00% |           1      0.00%    100.00% |           0      0.00%    100.00% |           1      0.00%    100.00% (Unspecified)
system.caches.RequestType.ST.hit_latency_hist_seqr::total     48572117                       (Unspecified)
system.caches.RequestType.ST.miss_latency_hist_seqr::bucket_size          256                       (Unspecified)
system.caches.RequestType.ST.miss_latency_hist_seqr::max_bucket         2559                       (Unspecified)
system.caches.RequestType.ST.miss_latency_hist_seqr::samples         1279                       (Unspecified)
system.caches.RequestType.ST.miss_latency_hist_seqr::mean   191.308835                       (Unspecified)
system.caches.RequestType.ST.miss_latency_hist_seqr::gmean    97.992584                       (Unspecified)
system.caches.RequestType.ST.miss_latency_hist_seqr::stdev   199.204119                       (Unspecified)
system.caches.RequestType.ST.miss_latency_hist_seqr |         862     67.40%     67.40% |         379     29.63%     97.03% |          30      2.35%     99.37% |           4      0.31%     99.69% |           0      0.00%     99.69% |           0      0.00%     99.69% |           0      0.00%     99.69% |           2      0.16%     99.84% |           2      0.16%    100.00% |           0      0.00%    100.00% (Unspecified)
system.caches.RequestType.ST.miss_latency_hist_seqr::total         1279                       (Unspecified)
system.caches.RequestType.IFETCH.latency_hist_seqr::bucket_size          256                       (Unspecified)
system.caches.RequestType.IFETCH.latency_hist_seqr::max_bucket         2559                       (Unspecified)
system.caches.RequestType.IFETCH.latency_hist_seqr::samples       144233                       (Unspecified)
system.caches.RequestType.IFETCH.latency_hist_seqr::mean     5.839676                       (Unspecified)
system.caches.RequestType.IFETCH.latency_hist_seqr::gmean     1.354369                       (Unspecified)
system.caches.RequestType.IFETCH.latency_hist_seqr::stdev    32.908229                       (Unspecified)
system.caches.RequestType.IFETCH.latency_hist_seqr |      143511     99.50%     99.50% |         700      0.49%     99.98% |          14      0.01%     99.99% |           1      0.00%    100.00% |           1      0.00%    100.00% |           2      0.00%    100.00% |           4      0.00%    100.00% |           0      0.00%    100.00% |           0      0.00%    100.00% |           0      0.00%    100.00% (Unspecified)
system.caches.RequestType.IFETCH.latency_hist_seqr::total       144233                       (Unspecified)
system.caches.RequestType.IFETCH.hit_latency_hist_seqr::bucket_size            1                       (Unspecified)
system.caches.RequestType.IFETCH.hit_latency_hist_seqr::max_bucket            9                       (Unspecified)
system.caches.RequestType.IFETCH.hit_latency_hist_seqr::samples       129699                       (Unspecified)
system.caches.RequestType.IFETCH.hit_latency_hist_seqr::mean     1.000008                       (Unspecified)
system.caches.RequestType.IFETCH.hit_latency_hist_seqr::gmean     1.000005                       (Unspecified)
system.caches.RequestType.IFETCH.hit_latency_hist_seqr::stdev     0.002777                       (Unspecified)
system.caches.RequestType.IFETCH.hit_latency_hist_seqr |           0      0.00%      0.00% |      129698    100.00%    100.00% |           1      0.00%    100.00% |           0      0.00%    100.00% |           0      0.00%    100.00% |           0      0.00%    100.00% |           0      0.00%    100.00% |           0      0.00%    100.00% |           0      0.00%    100.00% |           0      0.00%    100.00% (Unspecified)
system.caches.RequestType.IFETCH.hit_latency_hist_seqr::total       129699                       (Unspecified)
system.caches.RequestType.IFETCH.miss_latency_hist_seqr::bucket_size          256                       (Unspecified)
system.caches.RequestType.IFETCH.miss_latency_hist_seqr::max_bucket         2559                       (Unspecified)
system.caches.RequestType.IFETCH.miss_latency_hist_seqr::samples        14534                       (Unspecified)
system.caches.RequestType.IFETCH.miss_latency_hist_seqr::mean    49.028072                       (Unspecified)
system.caches.RequestType.IFETCH.miss_latency_hist_seqr::gmean    20.291560                       (Unspecified)
system.caches.RequestType.IFETCH.miss_latency_hist_seqr::stdev    93.130544                       (Unspecified)
system.caches.RequestType.IFETCH.miss_latency_hist_seqr |       13812     95.03%     95.03% |         700      4.82%     99.85% |          14      0.10%     99.94% |           1      0.01%     99.95% |           1      0.01%     99.96% |           2      0.01%     99.97% |           4      0.03%    100.00% |           0      0.00%    100.00% |           0      0.00%    100.00% |           0      0.00%    100.00% (Unspecified)
system.caches.RequestType.IFETCH.miss_latency_hist_seqr::total        14534                       (Unspecified)
system.caches.RequestType.RMW_Read.latency_hist_seqr::bucket_size          256                       (Unspecified)
system.caches.RequestType.RMW_Read.latency_hist_seqr::max_bucket         2559                       (Unspecified)
system.caches.RequestType.RMW_Read.latency_hist_seqr::samples     48406387                       (Unspecified)
system.caches.RequestType.RMW_Read.latency_hist_seqr::mean     1.019273                       (Unspecified)
system.caches.RequestType.RMW_Read.latency_hist_seqr::gmean     1.000702                       (Unspecified)
system.caches.RequestType.RMW_Read.latency_hist_seqr::stdev     2.242622                       (Unspecified)
system.caches.RequestType.RMW_Read.latency_hist_seqr |    48405133    100.00%    100.00% |        1171      0.00%    100.00% |          68      0.00%    100.00% |           7      0.00%    100.00% |           1      0.00%    100.00% |           0      0.00%    100.00% |           1      0.00%    100.00% |           4      0.00%    100.00% |           1      0.00%    100.00% |           1      0.00%    100.00% (Unspecified)
system.caches.RequestType.RMW_Read.latency_hist_seqr::total     48406387                       (Unspecified)
system.caches.RequestType.RMW_Read.hit_latency_hist_seqr::bucket_size          256                       (Unspecified)
system.caches.RequestType.RMW_Read.hit_latency_hist_seqr::max_bucket         2559                       (Unspecified)
system.caches.RequestType.RMW_Read.hit_latency_hist_seqr::samples     48399445                       (Unspecified)
system.caches.RequestType.RMW_Read.hit_latency_hist_seqr::mean     1.001338                       (Unspecified)
system.caches.RequestType.RMW_Read.hit_latency_hist_seqr::gmean     1.000047                       (Unspecified)
system.caches.RequestType.RMW_Read.hit_latency_hist_seqr::stdev     0.746676                       (Unspecified)
system.caches.RequestType.RMW_Read.hit_latency_hist_seqr |    48399325    100.00%    100.00% |         111      0.00%    100.00% |           7      0.00%    100.00% |           0      0.00%    100.00% |           0      0.00%    100.00% |           0      0.00%    100.00% |           0      0.00%    100.00% |           2      0.00%    100.00% |           0      0.00%    100.00% |           0      0.00%    100.00% (Unspecified)
system.caches.RequestType.RMW_Read.hit_latency_hist_seqr::total     48399445                       (Unspecified)
system.caches.RequestType.RMW_Read.miss_latency_hist_seqr::bucket_size          256                       (Unspecified)
system.caches.RequestType.RMW_Read.miss_latency_hist_seqr::max_bucket         2559                       (Unspecified)
system.caches.RequestType.RMW_Read.miss_latency_hist_seqr::samples         6942                       (Unspecified)
system.caches.RequestType.RMW_Read.miss_latency_hist_seqr::mean   126.060501                       (Unspecified)
system.caches.RequestType.RMW_Read.miss_latency_hist_seqr::gmean    95.896087                       (Unspecified)
system.caches.RequestType.RMW_Read.miss_latency_hist_seqr::stdev   124.688388                       (Unspecified)
system.caches.RequestType.RMW_Read.miss_latency_hist_seqr |        5808     83.66%     83.66% |        1060     15.27%     98.93% |          61      0.88%     99.81% |           7      0.10%     99.91% |           1      0.01%     99.93% |           0      0.00%     99.93% |           1      0.01%     99.94% |           2      0.03%     99.97% |           1      0.01%     99.99% |           1      0.01%    100.00% (Unspecified)
system.caches.RequestType.RMW_Read.miss_latency_hist_seqr::total         6942                       (Unspecified)
system.caches.RequestType.Locked_RMW_Read.latency_hist_seqr::bucket_size          256                       (Unspecified)
system.caches.RequestType.Locked_RMW_Read.latency_hist_seqr::max_bucket         2559                       (Unspecified)
system.caches.RequestType.Locked_RMW_Read.latency_hist_seqr::samples         1901                       (Unspecified)
system.caches.RequestType.Locked_RMW_Read.latency_hist_seqr::mean    25.785376                       (Unspecified)
system.caches.RequestType.Locked_RMW_Read.latency_hist_seqr::gmean     1.705868                       (Unspecified)
system.caches.RequestType.Locked_RMW_Read.latency_hist_seqr::stdev   108.544283                       (Unspecified)
system.caches.RequestType.Locked_RMW_Read.latency_hist_seqr |        1813     95.37%     95.37% |          82      4.31%     99.68% |           4      0.21%     99.89% |           0      0.00%     99.89% |           0      0.00%     99.89% |           0      0.00%     99.89% |           0      0.00%     99.89% |           1      0.05%     99.95% |           0      0.00%     99.95% |           1      0.05%    100.00% (Unspecified)
system.caches.RequestType.Locked_RMW_Read.latency_hist_seqr::total         1901                       (Unspecified)
system.caches.RequestType.Locked_RMW_Read.hit_latency_hist_seqr::bucket_size            1                       (Unspecified)
system.caches.RequestType.Locked_RMW_Read.hit_latency_hist_seqr::max_bucket            9                       (Unspecified)
system.caches.RequestType.Locked_RMW_Read.hit_latency_hist_seqr::samples         1702                       (Unspecified)
system.caches.RequestType.Locked_RMW_Read.hit_latency_hist_seqr::mean            1                       (Unspecified)
system.caches.RequestType.Locked_RMW_Read.hit_latency_hist_seqr::gmean            1                       (Unspecified)
system.caches.RequestType.Locked_RMW_Read.hit_latency_hist_seqr |           0      0.00%      0.00% |        1702    100.00%    100.00% |           0      0.00%    100.00% |           0      0.00%    100.00% |           0      0.00%    100.00% |           0      0.00%    100.00% |           0      0.00%    100.00% |           0      0.00%    100.00% |           0      0.00%    100.00% |           0      0.00%    100.00% (Unspecified)
system.caches.RequestType.Locked_RMW_Read.hit_latency_hist_seqr::total         1702                       (Unspecified)
system.caches.RequestType.Locked_RMW_Read.miss_latency_hist_seqr::bucket_size          256                       (Unspecified)
system.caches.RequestType.Locked_RMW_Read.miss_latency_hist_seqr::max_bucket         2559                       (Unspecified)
system.caches.RequestType.Locked_RMW_Read.miss_latency_hist_seqr::samples          199                       (Unspecified)
system.caches.RequestType.Locked_RMW_Read.miss_latency_hist_seqr::mean   237.768844                       (Unspecified)
system.caches.RequestType.Locked_RMW_Read.miss_latency_hist_seqr::gmean   164.331508                       (Unspecified)
system.caches.RequestType.Locked_RMW_Read.miss_latency_hist_seqr::stdev   250.227284                       (Unspecified)
system.caches.RequestType.Locked_RMW_Read.miss_latency_hist_seqr |         111     55.78%     55.78% |          82     41.21%     96.98% |           4      2.01%     98.99% |           0      0.00%     98.99% |           0      0.00%     98.99% |           0      0.00%     98.99% |           0      0.00%     98.99% |           1      0.50%     99.50% |           0      0.00%     99.50% |           1      0.50%    100.00% (Unspecified)
system.caches.RequestType.Locked_RMW_Read.miss_latency_hist_seqr::total          199                       (Unspecified)
system.caches.RequestType.Locked_RMW_Write.latency_hist_seqr::bucket_size            1                       (Unspecified)
system.caches.RequestType.Locked_RMW_Write.latency_hist_seqr::max_bucket            9                       (Unspecified)
system.caches.RequestType.Locked_RMW_Write.latency_hist_seqr::samples         1901                       (Unspecified)
system.caches.RequestType.Locked_RMW_Write.latency_hist_seqr::mean            1                       (Unspecified)
system.caches.RequestType.Locked_RMW_Write.latency_hist_seqr::gmean            1                       (Unspecified)
system.caches.RequestType.Locked_RMW_Write.latency_hist_seqr |           0      0.00%      0.00% |        1901    100.00%    100.00% |           0      0.00%    100.00% |           0      0.00%    100.00% |           0      0.00%    100.00% |           0      0.00%    100.00% |           0      0.00%    100.00% |           0      0.00%    100.00% |           0      0.00%    100.00% |           0      0.00%    100.00% (Unspecified)
system.caches.RequestType.Locked_RMW_Write.latency_hist_seqr::total         1901                       (Unspecified)
system.caches.RequestType.Locked_RMW_Write.hit_latency_hist_seqr::bucket_size            1                       (Unspecified)
system.caches.RequestType.Locked_RMW_Write.hit_latency_hist_seqr::max_bucket            9                       (Unspecified)
system.caches.RequestType.Locked_RMW_Write.hit_latency_hist_seqr::samples         1901                       (Unspecified)
[...]
system.o3Cpu7.iew.idleCycles                        0                       # Number of cycles IEW is idle (Cycle)
system.o3Cpu7.iew.squashCycles                   1494                       # Number of cycles IEW is squashing (Cycle)
system.o3Cpu7.iew.blockCycles               120444647                       # Number of cycles IEW is blocking (Cycle)
system.o3Cpu7.iew.unblockCycles                702301                       # Number of cycles IEW is unblocking (Cycle)
system.o3Cpu7.iew.dispatchedInsts            85335796                       # Number of instructions dispatched to IQ (Count)
system.o3Cpu7.iew.dispSquashedInsts               626                       # Number of squashed instructions skipped by dispatch (Count)
system.o3Cpu7.iew.dispLoadInsts              12191927                       # Number of dispatched load instructions (Count)
system.o3Cpu7.iew.dispStoreInsts              6096541                       # Number of dispatched store instructions (Count)
system.o3Cpu7.iew.dispNonSpecInsts               1416                       # Number of dispatched non-speculative instructions (Count)
system.o3Cpu7.iew.iqFullEvents                 438985                       # Number of times the IQ has become full, causing a stall (Count)
system.o3Cpu7.iew.lsqFullEvents                   711                       # Number of times the LSQ has become full, causing a stall (Count)
system.o3Cpu7.iew.memOrderViolationEvents          805                       # Number of memory order violations (Count)
system.o3Cpu7.iew.predictedTakenIncorrect          363                       # Number of branches that were predicted taken incorrectly (Count)
system.o3Cpu7.iew.predictedNotTakenIncorrect          428                       # Number of branches that were predicted not taken incorrectly (Count)
system.o3Cpu7.iew.branchMispredicts               791                       # Number of branch mispredicts detected at execute (Count)
system.o3Cpu7.iew.instsToCommit              85307923                       # Cumulative count of insts sent to commit (Count)
system.o3Cpu7.iew.writebackCount             85307609                       # Cumulative count of insts written-back (Count)
system.o3Cpu7.iew.producerInst               68621368                       # Number of instructions producing a value (Count)
system.o3Cpu7.iew.consumerInst              103119502                       # Number of instructions consuming a value (Count)
system.o3Cpu7.iew.wbRate                     0.526982                       # Insts written-back per cycle ((Count/Cycle))
system.o3Cpu7.iew.wbFanout                   0.665455                       # Average fanout of values written-back ((Count/Count))
system.o3Cpu7.interrupts.clk_domain.clock         3200                       # Clock period in ticks (Tick)
system.o3Cpu7.lsq0.forwLoads                    14106                       # Number of loads that had data forwarded from stores (Count)
system.o3Cpu7.lsq0.squashedLoads                 9182                       # Number of loads squashed (Count)
system.o3Cpu7.lsq0.ignoredResponses                32                       # Number of memory responses ignored because the instruction is squashed (Count)
system.o3Cpu7.lsq0.memOrderViolation              805                       # Number of memory ordering violations (Count)
system.o3Cpu7.lsq0.squashedStores                4451                       # Number of stores squashed (Count)
system.o3Cpu7.lsq0.rescheduledLoads                23                       # Number of loads that were rescheduled (Count)
system.o3Cpu7.lsq0.blockedByCache                  60                       # Number of times an access to memory failed due to the cache being blocked (Count)
system.o3Cpu7.lsq0.loadToUse::samples        12182709                       # Distribution of cycle latency between the first time a load is issued and its completion (Unspecified)
system.o3Cpu7.lsq0.loadToUse::mean          13.301440                       # Distribution of cycle latency between the first time a load is issued and its completion (Unspecified)
system.o3Cpu7.lsq0.loadToUse::stdev         67.402389                       # Distribution of cycle latency between the first time a load is issued and its completion (Unspecified)
system.o3Cpu7.lsq0.loadToUse::0-9            11799712     96.86%     96.86% # Distribution of cycle latency between the first time a load is issued and its completion (Unspecified)
system.o3Cpu7.lsq0.loadToUse::10-19               762      0.01%     96.86% # Distribution of cycle latency between the first time a load is issued and its completion (Unspecified)
system.o3Cpu7.lsq0.loadToUse::20-29               388      0.00%     96.87% # Distribution of cycle latency between the first time a load is issued and its completion (Unspecified)
system.o3Cpu7.lsq0.loadToUse::30-39               114      0.00%     96.87% # Distribution of cycle latency between the first time a load is issued and its completion (Unspecified)
system.o3Cpu7.lsq0.loadToUse::40-49                75      0.00%     96.87% # Distribution of cycle latency between the first time a load is issued and its completion (Unspecified)
system.o3Cpu7.lsq0.loadToUse::50-59                32      0.00%     96.87% # Distribution of cycle latency between the first time a load is issued and its completion (Unspecified)
system.o3Cpu7.lsq0.loadToUse::60-69                10      0.00%     96.87% # Distribution of cycle latency between the first time a load is issued and its completion (Unspecified)
system.o3Cpu7.lsq0.loadToUse::70-79               632      0.01%     96.87% # Distribution of cycle latency between the first time a load is issued and its completion (Unspecified)
system.o3Cpu7.lsq0.loadToUse::80-89                29      0.00%     96.87% # Distribution of cycle latency between the first time a load is issued and its completion (Unspecified)
system.o3Cpu7.lsq0.loadToUse::90-99                 9      0.00%     96.87% # Distribution of cycle latency between the first time a load is issued and its completion (Unspecified)
system.o3Cpu7.lsq0.loadToUse::100-109              14      0.00%     96.87% # Distribution of cycle latency between the first time a load is issued and its completion (Unspecified)
system.o3Cpu7.lsq0.loadToUse::110-119               9      0.00%     96.87% # Distribution of cycle latency between the first time a load is issued and its completion (Unspecified)
system.o3Cpu7.lsq0.loadToUse::120-129              13      0.00%     96.87% # Distribution of cycle latency between the first time a load is issued and its completion (Unspecified)
system.o3Cpu7.lsq0.loadToUse::130-139               8      0.00%     96.87% # Distribution of cycle latency between the first time a load is issued and its completion (Unspecified)
system.o3Cpu7.lsq0.loadToUse::140-149               6      0.00%     96.87% # Distribution of cycle latency between the first time a load is issued and its completion (Unspecified)
system.o3Cpu7.lsq0.loadToUse::150-159               2      0.00%     96.87% # Distribution of cycle latency between the first time a load is issued and its completion (Unspecified)
system.o3Cpu7.lsq0.loadToUse::160-169               2      0.00%     96.87% # Distribution of cycle latency between the first time a load is issued and its completion (Unspecified)
system.o3Cpu7.lsq0.loadToUse::170-179               2      0.00%     96.87% # Distribution of cycle latency between the first time a load is issued and its completion (Unspecified)
system.o3Cpu7.lsq0.loadToUse::180-189               6      0.00%     96.87% # Distribution of cycle latency between the first time a load is issued and its completion (Unspecified)
system.o3Cpu7.lsq0.loadToUse::190-199               5      0.00%     96.87% # Distribution of cycle latency between the first time a load is issued and its completion (Unspecified)
system.o3Cpu7.lsq0.loadToUse::200-209               6      0.00%     96.87% # Distribution of cycle latency between the first time a load is issued and its completion (Unspecified)
system.o3Cpu7.lsq0.loadToUse::210-219          136549      1.12%     97.99% # Distribution of cycle latency between the first time a load is issued and its completion (Unspecified)
system.o3Cpu7.lsq0.loadToUse::220-229            1592      0.01%     98.01% # Distribution of cycle latency between the first time a load is issued and its completion (Unspecified)
system.o3Cpu7.lsq0.loadToUse::230-239             527      0.00%     98.01% # Distribution of cycle latency between the first time a load is issued and its completion (Unspecified)
system.o3Cpu7.lsq0.loadToUse::240-249             286      0.00%     98.01% # Distribution of cycle latency between the first time a load is issued and its completion (Unspecified)
system.o3Cpu7.lsq0.loadToUse::250-259             284      0.00%     98.02% # Distribution of cycle latency between the first time a load is issued and its completion (Unspecified)
system.o3Cpu7.lsq0.loadToUse::260-269             515      0.00%     98.02% # Distribution of cycle latency between the first time a load is issued and its completion (Unspecified)
system.o3Cpu7.lsq0.loadToUse::270-279            1844      0.02%     98.04% # Distribution of cycle latency between the first time a load is issued and its completion (Unspecified)
system.o3Cpu7.lsq0.loadToUse::280-289           15164      0.12%     98.16% # Distribution of cycle latency between the first time a load is issued and its completion (Unspecified)
system.o3Cpu7.lsq0.loadToUse::290-299            1046      0.01%     98.17% # Distribution of cycle latency between the first time a load is issued and its completion (Unspecified)
system.o3Cpu7.lsq0.loadToUse::overflows        223066      1.83%    100.00% # Distribution of cycle latency between the first time a load is issued and its completion (Unspecified)
system.o3Cpu7.lsq0.loadToUse::min_value             2                       # Distribution of cycle latency between the first time a load is issued and its completion (Unspecified)
system.o3Cpu7.lsq0.loadToUse::max_value          3059                       # Distribution of cycle latency between the first time a load is issued and its completion (Unspecified)
system.o3Cpu7.lsq0.loadToUse::total          12182709                       # Distribution of cycle latency between the first time a load is issued and its completion (Unspecified)
system.o3Cpu7.mmu.dtb.rdAccesses             12189501                       # TLB accesses on read requests (Count)
system.o3Cpu7.mmu.dtb.wrAccesses              6094526                       # TLB accesses on write requests (Count)
system.o3Cpu7.mmu.dtb.rdMisses                   1196                       # TLB misses on read requests (Count)
system.o3Cpu7.mmu.dtb.wrMisses                    744                       # TLB misses on write requests (Count)
system.o3Cpu7.mmu.dtb.walker.power_state.pwrStateResidencyTicks::UNDEFINED  33386054600                       # Cumulative time (in ticks) in various power states (Tick)
system.o3Cpu7.mmu.itb.rdAccesses                    0                       # TLB accesses on read requests (Count)
system.o3Cpu7.mmu.itb.wrAccesses                17296                       # TLB accesses on write requests (Count)
system.o3Cpu7.mmu.itb.rdMisses                      0                       # TLB misses on read requests (Count)
system.o3Cpu7.mmu.itb.wrMisses                     75                       # TLB misses on write requests (Count)
system.o3Cpu7.mmu.itb.walker.power_state.pwrStateResidencyTicks::UNDEFINED  33386054600                       # Cumulative time (in ticks) in various power states (Tick)
system.o3Cpu7.power_state.pwrStateResidencyTicks::OFF  33386054600                       # Cumulative time (in ticks) in various power states (Tick)
system.o3Cpu7.rename.squashCycles                1494                       # Number of cycles rename is squashing (Cycle)
system.o3Cpu7.rename.idleCycles               3553759                       # Number of cycles rename is idle (Cycle)
system.o3Cpu7.rename.blockCycles            125238229                       # Number of cycles rename is blocking (Cycle)
system.o3Cpu7.rename.serializeStallCycles       120673                       # count of cycles rename stalled for serializing inst (Cycle)
system.o3Cpu7.rename.runCycles                3554008                       # Number of cycles rename is running (Cycle)
system.o3Cpu7.rename.unblockCycles           29372809                       # Number of cycles rename is unblocking (Cycle)
system.o3Cpu7.rename.renamedInsts            85341549                       # Number of instructions processed by rename (Count)
system.o3Cpu7.rename.ROBFullEvents               2063                       # Number of times rename has blocked due to ROB full (Count)
system.o3Cpu7.rename.IQFullEvents            29258469                       # Number of times rename has blocked due to IQ full (Count)
system.o3Cpu7.rename.LQFullEvents                2618                       # Number of times rename has blocked due to LQ full (Count)
system.o3Cpu7.rename.SQFullEvents                1405                       # Number of times rename has blocked due to SQ full (Count)
system.o3Cpu7.rename.renamedOperands        194900610                       # Number of destination operands rename has renamed (Count)
system.o3Cpu7.rename.lookups                322917098                       # Number of register rename lookups that rename has made (Count)
system.o3Cpu7.rename.intLookups             140136484                       # Number of integer rename lookups (Count)
system.o3Cpu7.rename.committedMaps          194794243                       # Number of HB maps that are committed (Count)
system.o3Cpu7.rename.undoneMaps                105776                       # Number of HB maps that are undone due to squashing (Count)
system.o3Cpu7.rename.serializing                 1549                       # count of serializing insts renamed (Count)
system.o3Cpu7.rename.tempSerializing             1609                       # count of temporary serializing insts renamed (Count)
system.o3Cpu7.rename.skidInsts               67024688                       # count of insts added to the skid buffer (Count)
system.o3Cpu7.rob.reads                     247161924                       # The number of ROB reads (Count)
system.o3Cpu7.rob.writes                    170667554                       # The number of ROB writes (Count)
system.o3Cpu7.thread_0.numInsts              48711583                       # Number of Instructions committed (Count)
system.o3Cpu7.thread_0.numOps                85275037                       # Number of Ops committed (Count)
system.o3Cpu7.thread_0.numMemRefs                   0                       # Number of Memory References (Count)
system.pc.bad_addr.power_state.pwrStateResidencyTicks::UNDEFINED  33386054600                       # Cumulative time (in ticks) in various power states (Tick)
system.pc.com_1.power_state.pwrStateResidencyTicks::UNDEFINED  33386054600                       # Cumulative time (in ticks) in various power states (Tick)
system.pc.default_bus.power_state.pwrStateResidencyTicks::UNDEFINED  33386054600                       # Cumulative time (in ticks) in various power states (Tick)
system.pc.empty_isa.power_state.pwrStateResidencyTicks::UNDEFINED  33386054600                       # Cumulative time (in ticks) in various power states (Tick)
system.pc.fake_com_2.power_state.pwrStateResidencyTicks::UNDEFINED  33386054600                       # Cumulative time (in ticks) in various power states (Tick)
system.pc.fake_com_3.power_state.pwrStateResidencyTicks::UNDEFINED  33386054600                       # Cumulative time (in ticks) in various power states (Tick)
system.pc.fake_com_4.power_state.pwrStateResidencyTicks::UNDEFINED  33386054600                       # Cumulative time (in ticks) in various power states (Tick)
system.pc.fake_floppy.power_state.pwrStateResidencyTicks::UNDEFINED  33386054600                       # Cumulative time (in ticks) in various power states (Tick)
system.pc.pci_host.power_state.pwrStateResidencyTicks::UNDEFINED  33386054600                       # Cumulative time (in ticks) in various power states (Tick)
system.pc.south_bridge.cmos.power_state.pwrStateResidencyTicks::UNDEFINED  33386054600                       # Cumulative time (in ticks) in various power states (Tick)
system.pc.south_bridge.dma1.power_state.pwrStateResidencyTicks::UNDEFINED  33386054600                       # Cumulative time (in ticks) in various power states (Tick)
system.pc.south_bridge.ide.disks0.IdeDisk.dmaReadFullPages            0                       # Number of full page size DMA reads (not PRD). (Count)
system.pc.south_bridge.ide.disks0.IdeDisk.dmaReadBytes            0                       # Number of bytes transfered via DMA reads (not PRD). (Byte)
system.pc.south_bridge.ide.disks0.IdeDisk.dmaReadTxs            0                       # Number of DMA read transactions (not PRD). (Count)
system.pc.south_bridge.ide.disks0.IdeDisk.dmaWriteFullPages            0                       # Number of full page size DMA writes. (Count)
system.pc.south_bridge.ide.disks0.IdeDisk.dmaWriteBytes            0                       # Number of bytes transfered via DMA writes. (Byte)
system.pc.south_bridge.ide.disks0.IdeDisk.dmaWriteTxs            0                       # Number of DMA write transactions. (Count)
system.pc.south_bridge.ide.disks1.IdeDisk.dmaReadFullPages            0                       # Number of full page size DMA reads (not PRD). (Count)
system.pc.south_bridge.ide.disks1.IdeDisk.dmaReadBytes            0                       # Number of bytes transfered via DMA reads (not PRD). (Byte)
system.pc.south_bridge.ide.disks1.IdeDisk.dmaReadTxs            0                       # Number of DMA read transactions (not PRD). (Count)
system.pc.south_bridge.ide.disks1.IdeDisk.dmaWriteFullPages            0                       # Number of full page size DMA writes. (Count)
system.pc.south_bridge.ide.disks1.IdeDisk.dmaWriteBytes            0                       # Number of bytes transfered via DMA writes. (Byte)
system.pc.south_bridge.ide.disks1.IdeDisk.dmaWriteTxs            0                       # Number of DMA write transactions. (Count)
system.pc.south_bridge.ide.power_state.pwrStateResidencyTicks::UNDEFINED  33386054600                       # Cumulative time (in ticks) in various power states (Tick)
system.pc.south_bridge.io_apic.power_state.pwrStateResidencyTicks::UNDEFINED  33386054600                       # Cumulative time (in ticks) in various power states (Tick)
system.pc.south_bridge.keyboard.power_state.pwrStateResidencyTicks::UNDEFINED  33386054600                       # Cumulative time (in ticks) in various power states (Tick)
system.pc.south_bridge.pic1.power_state.pwrStateResidencyTicks::UNDEFINED  33386054600                       # Cumulative time (in ticks) in various power states (Tick)
system.pc.south_bridge.pic2.power_state.pwrStateResidencyTicks::UNDEFINED  33386054600                       # Cumulative time (in ticks) in various power states (Tick)
system.pc.south_bridge.pit.power_state.pwrStateResidencyTicks::UNDEFINED  33386054600                       # Cumulative time (in ticks) in various power states (Tick)
system.pc.south_bridge.speaker.power_state.pwrStateResidencyTicks::UNDEFINED  33386054600                       # Cumulative time (in ticks) in various power states (Tick)
system.workload.inst.arm                            0                       # number of arm instructions executed (Count)
system.workload.inst.quiesce                        0                       # number of quiesce instructions executed (Count)

---------- End Simulation Statistics   ----------
