
---------- Begin Simulation Statistics ----------
simSeconds                                   0.033607                       # Number of seconds simulated (Second)
simTicks                                  33606858400                       # Number of ticks simulated (Tick)
finalTick                                95836694819800                       # Number of ticks from beginning of simulation (restored from checkpoints and never reset) (Tick)
simFreq                                  1000000000000                       # The number of ticks per simulated second ((Tick/Second))
hostSeconds                                   5905.71                       # Real time elapsed on the host (Second)
hostTickRate                                  5690569                       # The number of ticks simulated per host second (ticks/s) ((Tick/Second))
hostMemory                                   19909920                       # Number of bytes of host memory used (Byte)
simInsts                                    388331787                       # Number of instructions simulated (Count)
simOps                                      679848010                       # Number of ops (including micro ops) simulated (Count)
hostInstRate                                    65755                       # Simulator instruction rate (inst/s) ((Count/Second))
hostOpRate                                     115117                       # Simulator op (including micro ops) rate (op/s) ((Count/Second))
system.caches.delayHistogram::bucket_size            8                       # delay histogram for all message (Unspecified)
system.caches.delayHistogram::max_bucket           79                       # delay histogram for all message (Unspecified)
system.caches.delayHistogram::samples        21622314                       # delay histogram for all message (Unspecified)
system.caches.delayHistogram::mean           0.018381                       # delay histogram for all message (Unspecified)
system.caches.delayHistogram::stdev          0.435640                       # delay histogram for all message (Unspecified)
system.caches.delayHistogram             |    21600380     99.90%     99.90% |       20895      0.10%    100.00% |         398      0.00%    100.00% |          82      0.00%    100.00% |          89      0.00%    100.00% |          99      0.00%    100.00% |         116      0.00%    100.00% |         165      0.00%    100.00% |          88      0.00%    100.00% |           2      0.00%    100.00% # delay histogram for all message (Unspecified)
system.caches.delayHistogram::total          21622314                       # delay histogram for all message (Unspecified)
system.caches.m_outstandReqHistSeqr::bucket_size            2                       (Unspecified)
system.caches.m_outstandReqHistSeqr::max_bucket           19                       (Unspecified)
system.caches.m_outstandReqHistSeqr::samples    242750060                       (Unspecified)
system.caches.m_outstandReqHistSeqr::mean     1.283049                       (Unspecified)
system.caches.m_outstandReqHistSeqr::gmean     1.207543                       (Unspecified)
system.caches.m_outstandReqHistSeqr::stdev     0.507498                       (Unspecified)
system.caches.m_outstandReqHistSeqr      |   180364378     74.30%     74.30% |    62301293     25.66%     99.97% |       62125      0.03%     99.99% |       19595      0.01%    100.00% |        2207      0.00%    100.00% |         458      0.00%    100.00% |           4      0.00%    100.00% |           0      0.00%    100.00% |           0      0.00%    100.00% |           0      0.00%    100.00% (Unspecified)
system.caches.m_outstandReqHistSeqr::total    242750060                       (Unspecified)
system.caches.m_latencyHistSeqr::bucket_size          512                       (Unspecified)
system.caches.m_latencyHistSeqr::max_bucket         5119                       (Unspecified)
system.caches.m_latencyHistSeqr::samples    242752365                       (Unspecified)
system.caches.m_latencyHistSeqr::mean        5.359770                       (Unspecified)
system.caches.m_latencyHistSeqr::gmean       1.076455                       (Unspecified)
system.caches.m_latencyHistSeqr::stdev      44.768486                       (Unspecified)
system.caches.m_latencyHistSeqr          |   242669832     99.97%     99.97% |       47567      0.02%     99.99% |         213      0.00%     99.99% |       14937      0.01%     99.99% |       19440      0.01%    100.00% |         370      0.00%    100.00% |           6      0.00%    100.00% |           0      0.00%    100.00% |           0      0.00%    100.00% |           0      0.00%    100.00% (Unspecified)
system.caches.m_latencyHistSeqr::total      242752365                       (Unspecified)
system.caches.m_hitLatencyHistSeqr::bucket_size          256                       (Unspecified)
system.caches.m_hitLatencyHistSeqr::max_bucket         2559                       (Unspecified)
system.caches.m_hitLatencyHistSeqr::samples    239623375                       (Unspecified)
system.caches.m_hitLatencyHistSeqr::mean     1.000452                       (Unspecified)
system.caches.m_hitLatencyHistSeqr::gmean     1.000014                       (Unspecified)
system.caches.m_hitLatencyHistSeqr::stdev     0.537928                       (Unspecified)
system.caches.m_hitLatencyHistSeqr       |   239623183    100.00%    100.00% |         173      0.00%    100.00% |           9      0.00%    100.00% |           1      0.00%    100.00% |           0      0.00%    100.00% |           0      0.00%    100.00% |           1      0.00%    100.00% |           3      0.00%    100.00% |           3      0.00%    100.00% |           2      0.00%    100.00% (Unspecified)
system.caches.m_hitLatencyHistSeqr::total    239623375                       (Unspecified)
system.caches.m_missLatencyHistSeqr::bucket_size          512                       (Unspecified)
system.caches.m_missLatencyHistSeqr::max_bucket         5119                       (Unspecified)
system.caches.m_missLatencyHistSeqr::samples      3128990                       (Unspecified)
system.caches.m_missLatencyHistSeqr::mean   339.203782                       (Unspecified)
system.caches.m_missLatencyHistSeqr::gmean   303.247878                       (Unspecified)
system.caches.m_missLatencyHistSeqr::stdev   206.303864                       (Unspecified)
system.caches.m_missLatencyHistSeqr      |     3046476     97.36%     97.36% |       47557      1.52%     98.88% |         213      0.01%     98.89% |       14933      0.48%     99.37% |       19435      0.62%     99.99% |         370      0.01%    100.00% |           6      0.00%    100.00% |           0      0.00%    100.00% |           0      0.00%    100.00% |           0      0.00%    100.00% (Unspecified)
system.caches.m_missLatencyHistSeqr::total      3128990                       (Unspecified)
system.caches.delayVCHist.vnet_0::bucket_size            8                       # delay histogram for vnet_0 (Unspecified)
system.caches.delayVCHist.vnet_0::max_bucket           79                       # delay histogram for vnet_0 (Unspecified)
system.caches.delayVCHist.vnet_0::samples      9222578                       # delay histogram for vnet_0 (Unspecified)
system.caches.delayVCHist.vnet_0::mean       0.024923                       # delay histogram for vnet_0 (Unspecified)
system.caches.delayVCHist.vnet_0::stdev      0.583398                       # delay histogram for vnet_0 (Unspecified)
system.caches.delayVCHist.vnet_0         |     9203534     99.79%     99.79% |       18100      0.20%     99.99% |         311      0.00%     99.99% |          77      0.00%     99.99% |          86      0.00%     99.99% |          99      0.00%    100.00% |         116      0.00%    100.00% |         165      0.00%    100.00% |          88      0.00%    100.00% |           2      0.00%    100.00% # delay histogram for vnet_0 (Unspecified)
system.caches.delayVCHist.vnet_0::total       9222578                       # delay histogram for vnet_0 (Unspecified)
system.caches.delayVCHist.vnet_1::bucket_size            4                       # delay histogram for vnet_1 (Unspecified)
system.caches.delayVCHist.vnet_1::max_bucket           39                       # delay histogram for vnet_1 (Unspecified)
system.caches.delayVCHist.vnet_1::samples     12350646                       # delay histogram for vnet_1 (Unspecified)
system.caches.delayVCHist.vnet_1::mean       0.013566                       # delay histogram for vnet_1 (Unspecified)
system.caches.delayVCHist.vnet_1::stdev      0.279354                       # delay histogram for vnet_1 (Unspecified)
system.caches.delayVCHist.vnet_1         |    12324671     99.79%     99.79% |       23085      0.19%     99.98% |        1931      0.02%     99.99% |         864      0.01%    100.00% |          71      0.00%    100.00% |          16      0.00%    100.00% |           3      0.00%    100.00% |           2      0.00%    100.00% |           3      0.00%    100.00% |           0      0.00%    100.00% # delay histogram for vnet_1 (Unspecified)
system.caches.delayVCHist.vnet_1::total      12350646                       # delay histogram for vnet_1 (Unspecified)
system.caches.delayVCHist.vnet_2::bucket_size            1                       # delay histogram for vnet_2 (Unspecified)
system.caches.delayVCHist.vnet_2::max_bucket            9                       # delay histogram for vnet_2 (Unspecified)
system.caches.delayVCHist.vnet_2::samples        49090                       # delay histogram for vnet_2 (Unspecified)
system.caches.delayVCHist.vnet_2::mean       0.000489                       # delay histogram for vnet_2 (Unspecified)
system.caches.delayVCHist.vnet_2::stdev      0.036104                       # delay histogram for vnet_2 (Unspecified)
system.caches.delayVCHist.vnet_2         |       49080     99.98%     99.98% |           0      0.00%     99.98% |           8      0.02%    100.00% |           0      0.00%    100.00% |           2      0.00%    100.00% |           0      0.00%    100.00% |           0      0.00%    100.00% |           0      0.00%    100.00% |           0      0.00%    100.00% |           0      0.00%    100.00% # delay histogram for vnet_2 (Unspecified)
system.caches.delayVCHist.vnet_2::total         49090                       # delay histogram for vnet_2 (Unspecified)
system.caches.L1Cache_Controller.Load    |     6081936     12.50%     12.50% |     6067297     12.47%     24.97% |     6100853     12.54%     37.50% |     6083247     12.50%     50.01% |     6072346     12.48%     62.48% |     6105420     12.55%     75.03% |     6077178     12.49%     87.52% |     6073342     12.48%    100.00% (Unspecified)
system.caches.L1Cache_Controller.Load::total     48661619                       (Unspecified)
system.caches.L1Cache_Controller.Ifetch  |    12125781     12.49%     12.49% |    12108251     12.47%     24.96% |    12176629     12.54%     37.50% |    12140147     12.50%     50.00% |    12119127     12.48%     62.48% |    12185642     12.55%     75.03% |    12128578     12.49%     87.52% |    12120715     12.48%    100.00% (Unspecified)
system.caches.L1Cache_Controller.Ifetch::total     97104870                       (Unspecified)
system.caches.L1Cache_Controller.Store   |    12113574     12.49%     12.49% |    12092826     12.47%     24.96% |    12161616     12.54%     37.50% |    12124621     12.50%     50.00% |    12104019     12.48%     62.48% |    12170229     12.55%     75.03% |    12113307     12.49%     87.52% |    12105689     12.48%    100.00% (Unspecified)
system.caches.L1Cache_Controller.Store::total     96985881                       (Unspecified)
system.caches.L1Cache_Controller.Inv     |        6987     14.30%     14.30% |        5888     12.05%     26.35% |        6005     12.29%     38.64% |        5818     11.91%     50.54% |        5854     11.98%     62.52% |        6084     12.45%     74.97% |        6310     12.91%     87.89% |        5920     12.11%    100.00% (Unspecified)
system.caches.L1Cache_Controller.Inv::total        48866                       (Unspecified)
system.caches.L1Cache_Controller.L1_Replacement |      387015     12.54%     12.54% |      384233     12.45%     25.00% |      386568     12.53%     37.53% |      385599     12.50%     50.03% |      384879     12.48%     62.50% |      386905     12.54%     75.05% |      385093     12.48%     87.53% |      384777     12.47%    100.00% (Unspecified)
system.caches.L1Cache_Controller.L1_Replacement::total      3085069                       (Unspecified)
system.caches.L1Cache_Controller.Fwd_GETS |         150     66.96%     66.96% |          13      5.80%     72.77% |           1      0.45%     73.21% |           1      0.45%     73.66% |           0      0.00%     73.66% |           1      0.45%     74.11% |          46     20.54%     94.64% |          12      5.36%    100.00% (Unspecified)
system.caches.L1Cache_Controller.Fwd_GETS::total          224                       (Unspecified)
system.caches.L1Cache_Controller.Data    |         101    100.00%    100.00% |           0      0.00%    100.00% |           0      0.00%    100.00% |           0      0.00%    100.00% |           0      0.00%    100.00% |           0      0.00%    100.00% |           0      0.00%    100.00% |           0      0.00%    100.00% (Unspecified)
system.caches.L1Cache_Controller.Data::total          101                       (Unspecified)
system.caches.L1Cache_Controller.Data_Exclusive |      380058     12.49%     12.49% |      379291     12.47%     24.96% |      381383     12.54%     37.50% |      380369     12.50%     50.00% |      379710     12.48%     62.48% |      381689     12.55%     75.03% |      379945     12.49%     87.52% |      379641     12.48%    100.00% (Unspecified)
system.caches.L1Cache_Controller.Data_Exclusive::total      3042086                       (Unspecified)
system.caches.L1Cache_Controller.DataS_fromL1 |           1      0.45%      0.45% |          11      4.91%      5.36% |           3      1.34%      6.70% |           3      1.34%      8.04% |           0      0.00%      8.04% |         183     81.70%     89.73% |          15      6.70%     96.43% |           8      3.57%    100.00% (Unspecified)
system.caches.L1Cache_Controller.DataS_fromL1::total          224                       (Unspecified)
system.caches.L1Cache_Controller.Data_all_Acks |       12486     14.43%     14.43% |       10440     12.06%     26.49% |       10708     12.37%     38.86% |       10645     12.30%     51.16% |       10586     12.23%     63.39% |       10589     12.24%     75.63% |       10571     12.21%     87.84% |       10520     12.16%    100.00% (Unspecified)
system.caches.L1Cache_Controller.Data_all_Acks::total        86545                       (Unspecified)
system.caches.L1Cache_Controller.Ack     |         836    100.00%    100.00% |           0      0.00%    100.00% |           0      0.00%    100.00% |           0      0.00%    100.00% |           0      0.00%    100.00% |           0      0.00%    100.00% |           0      0.00%    100.00% |           0      0.00%    100.00% (Unspecified)
system.caches.L1Cache_Controller.Ack::total          836                       (Unspecified)
system.caches.L1Cache_Controller.Ack_all |         135    100.00%    100.00% |           0      0.00%    100.00% |           0      0.00%    100.00% |           0      0.00%    100.00% |           0      0.00%    100.00% |           0      0.00%    100.00% |           0      0.00%    100.00% |           0      0.00%    100.00% (Unspecified)
system.caches.L1Cache_Controller.Ack_all::total          135                       (Unspecified)
system.caches.L1Cache_Controller.WB_Ack  |      381179     12.62%     12.62% |      376015     12.45%     25.07% |      378246     12.52%     37.59% |      377236     12.49%     50.08% |      376599     12.47%     62.55% |      378324     12.52%     75.07% |      376611     12.47%     87.54% |      376349     12.46%    100.00% (Unspecified)
system.caches.L1Cache_Controller.WB_Ack::total      3020559                       (Unspecified)
system.caches.L1Cache_Controller.NP.Load |      382167     12.49%     12.49% |      381351     12.46%     24.95% |      383623     12.54%     37.49% |      382631     12.51%     50.00% |      381917     12.48%     62.48% |      383960     12.55%     75.03% |      382145     12.49%     87.52% |      381853     12.48%    100.00% (Unspecified)
system.caches.L1Cache_Controller.NP.Load::total      3059647                       (Unspecified)
system.caches.L1Cache_Controller.NP.Ifetch |        3465     20.28%     20.28% |        1939     11.35%     31.62% |        1953     11.43%     43.05% |        1951     11.42%     54.47% |        1954     11.43%     65.90% |        1953     11.43%     77.33% |        1936     11.33%     88.66% |        1938     11.34%    100.00% (Unspecified)
system.caches.L1Cache_Controller.NP.Ifetch::total        17089                       (Unspecified)
system.caches.L1Cache_Controller.NP.Store |        1504     17.16%     17.16% |         993     11.33%     28.49% |        1032     11.77%     40.26% |        1059     12.08%     52.34% |        1050     11.98%     64.32% |        1035     11.81%     76.13% |        1058     12.07%     88.20% |        1034     11.80%    100.00% (Unspecified)
system.caches.L1Cache_Controller.NP.Store::total         8765                       (Unspecified)
system.caches.L1Cache_Controller.NP.Inv  |         640     34.73%     34.73% |         155      8.41%     43.14% |         200     10.85%     53.99% |         206     11.18%     65.17% |         187     10.15%     75.31% |         253     13.73%     89.04% |         120      6.51%     95.55% |          82      4.45%    100.00% (Unspecified)
system.caches.L1Cache_Controller.NP.Inv::total         1843                       (Unspecified)
system.caches.L1Cache_Controller.I.Load  |           1      0.15%      0.15% |         173     25.78%     25.93% |         123     18.33%     44.26% |          40      5.96%     50.22% |          40      5.96%     56.18% |         171     25.48%     81.67% |          86     12.82%     94.49% |          37      5.51%    100.00% (Unspecified)
system.caches.L1Cache_Controller.I.Load::total          671                       (Unspecified)
system.caches.L1Cache_Controller.I.Ifetch |        2794     13.39%     13.39% |        2523     12.09%     25.47% |        2602     12.47%     37.94% |        2595     12.43%     50.37% |        2592     12.42%     62.79% |        2592     12.42%     75.20% |        2594     12.43%     87.63% |        2582     12.37%    100.00% (Unspecified)
system.caches.L1Cache_Controller.I.Ifetch::total        20874                       (Unspecified)
system.caches.L1Cache_Controller.I.Store |        2715     12.39%     12.39% |        2764     12.61%     25.00% |        2761     12.60%     37.60% |        2742     12.51%     50.11% |        2744     12.52%     62.63% |        2750     12.55%     75.18% |        2713     12.38%     87.56% |        2726     12.44%    100.00% (Unspecified)
system.caches.L1Cache_Controller.I.Store::total        21915                       (Unspecified)
system.caches.L1Cache_Controller.I.L1_Replacement |         700      2.30%      2.30% |        4158     13.63%     15.93% |        4141     13.58%     29.51% |        4188     13.73%     43.24% |        4192     13.75%     56.99% |        4260     13.97%     70.96% |        4424     14.51%     85.46% |        4433     14.54%    100.00% (Unspecified)
system.caches.L1Cache_Controller.I.L1_Replacement::total        30496                       (Unspecified)
system.caches.L1Cache_Controller.S.Load  |        6837     12.60%     12.60% |        6722     12.39%     24.98% |        6650     12.25%     37.24% |        7008     12.91%     50.15% |        6935     12.78%     62.93% |        6653     12.26%     75.19% |        6744     12.43%     87.61% |        6723     12.39%    100.00% (Unspecified)
system.caches.L1Cache_Controller.S.Load::total        54272                       (Unspecified)
system.caches.L1Cache_Controller.S.Ifetch |    12119522     12.49%     12.49% |    12103789     12.47%     24.96% |    12172074     12.54%     37.50% |    12135601     12.50%     50.00% |    12114581     12.48%     62.48% |    12181097     12.55%     75.03% |    12124048     12.49%     87.52% |    12116195     12.48%    100.00% (Unspecified)
system.caches.L1Cache_Controller.S.Ifetch::total     97066907                       (Unspecified)
system.caches.L1Cache_Controller.S.Store |          34    100.00%    100.00% |           0      0.00%    100.00% |           0      0.00%    100.00% |           0      0.00%    100.00% |           0      0.00%    100.00% |           0      0.00%    100.00% |           0      0.00%    100.00% |           0      0.00%    100.00% (Unspecified)
system.caches.L1Cache_Controller.S.Store::total           34                       (Unspecified)
system.caches.L1Cache_Controller.S.Inv   |        3198     14.96%     14.96% |        2608     12.20%     27.16% |        2548     11.92%     39.08% |        2548     11.92%     51.00% |        2580     12.07%     63.07% |        2546     11.91%     74.98% |        2684     12.56%     87.53% |        2665     12.47%    100.00% (Unspecified)
system.caches.L1Cache_Controller.S.Inv::total        21377                       (Unspecified)
system.caches.L1Cache_Controller.S.L1_Replacement |        5136     15.10%     15.10% |        4060     11.94%     27.04% |        4181     12.29%     39.33% |        4175     12.27%     51.60% |        4088     12.02%     63.62% |        4321     12.70%     76.32% |        4058     11.93%     88.25% |        3995     11.75%    100.00% (Unspecified)
system.caches.L1Cache_Controller.S.L1_Replacement::total        34014                       (Unspecified)
system.caches.L1Cache_Controller.E.Load  |     5677199     12.48%     12.48% |     5670546     12.47%     24.95% |     5702575     12.54%     37.49% |     5685356     12.50%     50.00% |     5675542     12.48%     62.48% |     5706698     12.55%     75.03% |     5680078     12.49%     87.52% |     5676470     12.48%    100.00% (Unspecified)
system.caches.L1Cache_Controller.E.Load::total     45474464                       (Unspecified)
system.caches.L1Cache_Controller.E.Store |         573     18.04%     18.04% |         369     11.61%     29.65% |         377     11.87%     41.52% |         376     11.84%     53.35% |         375     11.80%     65.16% |         375     11.80%     76.96% |         368     11.58%     88.54% |         364     11.46%    100.00% (Unspecified)
system.caches.L1Cache_Controller.E.Store::total         3177                       (Unspecified)
system.caches.L1Cache_Controller.E.Inv   |         245      7.55%      7.55% |         333     10.27%     17.82% |         477     14.71%     32.53% |         296      9.13%     41.66% |         311      9.59%     51.25% |         444     13.69%     64.94% |         754     23.25%     88.19% |         383     11.81%    100.00% (Unspecified)
system.caches.L1Cache_Controller.E.Inv::total         3243                       (Unspecified)
system.caches.L1Cache_Controller.E.L1_Replacement |      375360     12.49%     12.49% |      374737     12.47%     24.96% |      376949     12.54%     37.50% |      375885     12.51%     50.00% |      375263     12.49%     62.49% |      377066     12.55%     75.03% |      375287     12.49%     87.52% |      375076     12.48%    100.00% (Unspecified)
system.caches.L1Cache_Controller.E.L1_Replacement::total      3005623                       (Unspecified)
system.caches.L1Cache_Controller.E.Fwd_GETS |          14     15.91%     15.91% |          13     14.77%     30.68% |           1      1.14%     31.82% |           1      1.14%     32.95% |           0      0.00%     32.95% |           1      1.14%     34.09% |          46     52.27%     86.36% |          12     13.64%    100.00% (Unspecified)
system.caches.L1Cache_Controller.E.Fwd_GETS::total           88                       (Unspecified)
system.caches.L1Cache_Controller.M.Load  |       15732     21.68%     21.68% |        8505     11.72%     33.40% |        7882     10.86%     44.26% |        8212     11.32%     55.58% |        7912     10.90%     66.48% |        7938     10.94%     77.42% |        8125     11.20%     88.62% |        8259     11.38%    100.00% (Unspecified)
system.caches.L1Cache_Controller.M.Load::total        72565                       (Unspecified)
system.caches.L1Cache_Controller.M.Store |    12108748     12.49%     12.49% |    12088700     12.47%     24.96% |    12157446     12.54%     37.50% |    12120444     12.50%     50.00% |    12099850     12.48%     62.48% |    12166069     12.55%     75.03% |    12109168     12.49%     87.52% |    12101565     12.48%    100.00% (Unspecified)
system.caches.L1Cache_Controller.M.Store::total     96951990                       (Unspecified)
system.caches.L1Cache_Controller.M.Inv   |        2904     12.96%     12.96% |        2792     12.46%     25.43% |        2780     12.41%     37.83% |        2768     12.36%     50.19% |        2776     12.39%     62.58% |        2841     12.68%     75.26% |        2752     12.28%     87.55% |        2790     12.45%    100.00% (Unspecified)
system.caches.L1Cache_Controller.M.Inv::total        22403                       (Unspecified)
system.caches.L1Cache_Controller.M.L1_Replacement |        5819     38.96%     38.96% |        1278      8.56%     47.52% |        1297      8.68%     56.20% |        1351      9.05%     65.25% |        1336      8.94%     74.19% |        1258      8.42%     82.61% |        1324      8.86%     91.48% |        1273      8.52%    100.00% (Unspecified)
system.caches.L1Cache_Controller.M.L1_Replacement::total        14936                       (Unspecified)
system.caches.L1Cache_Controller.M.Fwd_GETS |         136    100.00%    100.00% |           0      0.00%    100.00% |           0      0.00%    100.00% |           0      0.00%    100.00% |           0      0.00%    100.00% |           0      0.00%    100.00% |           0      0.00%    100.00% |           0      0.00%    100.00% (Unspecified)
system.caches.L1Cache_Controller.M.Fwd_GETS::total          136                       (Unspecified)
system.caches.L1Cache_Controller.IS.Data_Exclusive |      380058     12.49%     12.49% |      379291     12.47%     24.96% |      381383     12.54%     37.50% |      380369     12.50%     50.00% |      379710     12.48%     62.48% |      381689     12.55%     75.03% |      379945     12.49%     87.52% |      379641     12.48%    100.00% (Unspecified)
system.caches.L1Cache_Controller.IS.Data_Exclusive::total      3042086                       (Unspecified)
system.caches.L1Cache_Controller.IS.DataS_fromL1 |           1      0.45%      0.45% |          11      4.91%      5.36% |           3      1.34%      6.70% |           3      1.34%      8.04% |           0      0.00%      8.04% |         183     81.70%     89.73% |          15      6.70%     96.43% |           8      3.57%    100.00% (Unspecified)
system.caches.L1Cache_Controller.IS.DataS_fromL1::total          224                       (Unspecified)
system.caches.L1Cache_Controller.IS.Data_all_Acks |        8368     14.95%     14.95% |        6683     11.94%     26.89% |        6915     12.36%     39.25% |        6844     12.23%     51.48% |        6792     12.14%     63.61% |        6804     12.16%     75.77% |        6800     12.15%     87.92% |        6760     12.08%    100.00% (Unspecified)
system.caches.L1Cache_Controller.IS.Data_all_Acks::total        55966                       (Unspecified)
system.caches.L1Cache_Controller.IM.Data |         101    100.00%    100.00% |           0      0.00%    100.00% |           0      0.00%    100.00% |           0      0.00%    100.00% |           0      0.00%    100.00% |           0      0.00%    100.00% |           0      0.00%    100.00% |           0      0.00%    100.00% (Unspecified)
system.caches.L1Cache_Controller.IM.Data::total          101                       (Unspecified)
system.caches.L1Cache_Controller.IM.Data_all_Acks |        4118     13.47%     13.47% |        3757     12.29%     25.75% |        3793     12.40%     38.16% |        3801     12.43%     50.59% |        3794     12.41%     62.99% |        3785     12.38%     75.37% |        3771     12.33%     87.70% |        3760     12.30%    100.00% (Unspecified)
system.caches.L1Cache_Controller.IM.Data_all_Acks::total        30579                       (Unspecified)
system.caches.L1Cache_Controller.SM.Ack  |         836    100.00%    100.00% |           0      0.00%    100.00% |           0      0.00%    100.00% |           0      0.00%    100.00% |           0      0.00%    100.00% |           0      0.00%    100.00% |           0      0.00%    100.00% |           0      0.00%    100.00% (Unspecified)
system.caches.L1Cache_Controller.SM.Ack::total          836                       (Unspecified)
system.caches.L1Cache_Controller.SM.Ack_all |         135    100.00%    100.00% |           0      0.00%    100.00% |           0      0.00%    100.00% |           0      0.00%    100.00% |           0      0.00%    100.00% |           0      0.00%    100.00% |           0      0.00%    100.00% |           0      0.00%    100.00% (Unspecified)
system.caches.L1Cache_Controller.SM.Ack_all::total          135                       (Unspecified)
system.caches.L1Cache_Controller.M_I.WB_Ack |      381179     12.62%     12.62% |      376015     12.45%     25.07% |      378246     12.52%     37.59% |      377236     12.49%     50.08% |      376599     12.47%     62.55% |      378324     12.52%     75.07% |      376611     12.47%     87.54% |      376349     12.46%    100.00% (Unspecified)
system.caches.L1Cache_Controller.M_I.WB_Ack::total      3020559                       (Unspecified)
system.caches.Directory_Controller.Fetch |        4634      0.15%      0.15% |     3071372     99.85%    100.00% (Unspecified)
system.caches.Directory_Controller.Fetch::total      3076006                       (Unspecified)
system.caches.Directory_Controller.Data  |         512      0.53%      0.53% |       96550     99.47%    100.00% (Unspecified)
system.caches.Directory_Controller.Data::total        97062                       (Unspecified)
system.caches.Directory_Controller.Memory_Data |        4634      0.15%      0.15% |     3071368     99.85%    100.00% (Unspecified)
system.caches.Directory_Controller.Memory_Data::total      3076002                       (Unspecified)
system.caches.Directory_Controller.Memory_Ack |         512      0.53%      0.53% |       96550     99.47%    100.00% (Unspecified)
system.caches.Directory_Controller.Memory_Ack::total        97062                       (Unspecified)
system.caches.Directory_Controller.CleanReplacement |        3891      0.13%      0.13% |     2975053     99.87%    100.00% (Unspecified)
system.caches.Directory_Controller.CleanReplacement::total      2978944                       (Unspecified)
system.caches.Directory_Controller.I.Fetch |        4634      0.15%      0.15% |     3071372     99.85%    100.00% (Unspecified)
system.caches.Directory_Controller.I.Fetch::total      3076006                       (Unspecified)
system.caches.Directory_Controller.M.Data |         512      0.53%      0.53% |       96550     99.47%    100.00% (Unspecified)
system.caches.Directory_Controller.M.Data::total        97062                       (Unspecified)
system.caches.Directory_Controller.M.CleanReplacement |        3891      0.13%      0.13% |     2975053     99.87%    100.00% (Unspecified)
system.caches.Directory_Controller.M.CleanReplacement::total      2978944                       (Unspecified)
system.caches.Directory_Controller.IM.Memory_Data |        4634      0.15%      0.15% |     3071368     99.85%    100.00% (Unspecified)
system.caches.Directory_Controller.IM.Memory_Data::total      3076002                       (Unspecified)
system.caches.Directory_Controller.MI.Memory_Ack |         512      0.53%      0.53% |       96550     99.47%    100.00% (Unspecified)
system.caches.Directory_Controller.MI.Memory_Ack::total        97062                       (Unspecified)
system.caches.L2Cache_Controller.L1_GET_INSTR |        4856     12.75%     12.75% |        5443     14.29%     27.03% |        4636     12.17%     39.20% |        3031      7.96%     47.15% |        4749     12.46%     59.62% |        4975     13.06%     72.68% |        4868     12.78%     85.45% |        5542     14.55%    100.00% (Unspecified)
system.caches.L2Cache_Controller.L1_GET_INSTR::total        38100                       (Unspecified)
system.caches.L2Cache_Controller.L1_GETS |      385045     12.58%     12.58% |      383218     12.52%     25.10% |      382910     12.51%     37.62% |      381976     12.48%     50.10% |      381886     12.48%     62.58% |      381316     12.46%     75.04% |      381342     12.46%     87.50% |      382655     12.50%    100.00% (Unspecified)
system.caches.L2Cache_Controller.L1_GETS::total      3060348                       (Unspecified)
system.caches.L2Cache_Controller.L1_GETX |        4340     13.75%     13.75% |        3963     12.56%     26.31% |        3506     11.11%     37.42% |        3603     11.42%     48.83% |        3403     10.78%     59.61% |        4569     14.48%     74.09% |        3931     12.45%     86.54% |        4247     13.46%    100.00% (Unspecified)
system.caches.L2Cache_Controller.L1_GETX::total        31562                       (Unspecified)
system.caches.L2Cache_Controller.L1_UPGRADE |           0      0.00%      0.00% |          34    100.00%    100.00% |           0      0.00%    100.00% |           0      0.00%    100.00% |           0      0.00%    100.00% |           0      0.00%    100.00% |           0      0.00%    100.00% |           0      0.00%    100.00% (Unspecified)
system.caches.L2Cache_Controller.L1_UPGRADE::total           34                       (Unspecified)
system.caches.L2Cache_Controller.L1_PUTX |      377673     12.50%     12.50% |      377559     12.50%     25.00% |      376618     12.47%     37.47% |      377604     12.50%     49.97% |      377264     12.49%     62.46% |      378325     12.52%     74.99% |      377728     12.51%     87.49% |      377788     12.51%    100.00% (Unspecified)
system.caches.L2Cache_Controller.L1_PUTX::total      3020559                       (Unspecified)
system.caches.L2Cache_Controller.L2_Replacement |        9511     12.71%     12.71% |        8993     12.02%     24.73% |        8670     11.59%     36.32% |        9396     12.56%     48.88% |        8857     11.84%     60.72% |       10173     13.60%     74.32% |        9373     12.53%     86.85% |        9840     13.15%    100.00% (Unspecified)
system.caches.L2Cache_Controller.L2_Replacement::total        74813                       (Unspecified)
system.caches.L2Cache_Controller.L2_Replacement_clean |      375663     12.52%     12.52% |      375881     12.52%     25.04% |      374856     12.49%     37.53% |      374889     12.49%     50.02% |      375158     12.50%     62.52% |      374705     12.49%     75.01% |      375003     12.50%     87.50% |      375038     12.50%    100.00% (Unspecified)
system.caches.L2Cache_Controller.L2_Replacement_clean::total      3001193                       (Unspecified)
system.caches.L2Cache_Controller.Mem_Data |      385172     12.52%     12.52% |      384874     12.51%     25.03% |      383526     12.47%     37.50% |      384284     12.49%     50.00% |      384015     12.48%     62.48% |      384877     12.51%     74.99% |      384375     12.50%     87.49% |      384878     12.51%    100.00% (Unspecified)
system.caches.L2Cache_Controller.Mem_Data::total      3076001                       (Unspecified)
system.caches.L2Cache_Controller.Mem_Ack |      385174     12.52%     12.52% |      384874     12.51%     25.03% |      383526     12.47%     37.50% |      384285     12.49%     50.00% |      384015     12.48%     62.48% |      384878     12.51%     74.99% |      384376     12.50%     87.49% |      384878     12.51%    100.00% (Unspecified)
system.caches.L2Cache_Controller.Mem_Ack::total      3076006                       (Unspecified)
system.caches.L2Cache_Controller.WB_Data |        3055     13.55%     13.55% |        2998     13.30%     26.86% |        2810     12.47%     39.32% |        2744     12.17%     51.50% |        2653     11.77%     63.27% |        2630     11.67%     74.94% |        2765     12.27%     87.20% |        2884     12.80%    100.00% (Unspecified)
system.caches.L2Cache_Controller.WB_Data::total        22539                       (Unspecified)
system.caches.L2Cache_Controller.WB_Data_clean |          19     21.59%     21.59% |          10     11.36%     32.95% |          10     11.36%     44.32% |           8      9.09%     53.41% |           1      1.14%     54.55% |           3      3.41%     57.95% |          35     39.77%     97.73% |           2      2.27%    100.00% (Unspecified)
system.caches.L2Cache_Controller.WB_Data_clean::total           88                       (Unspecified)
system.caches.L2Cache_Controller.Ack     |        2512     13.68%     13.68% |        1982     10.80%     24.48% |        2267     12.35%     36.83% |        2405     13.10%     49.93% |        2388     13.01%     62.94% |        2307     12.57%     75.51% |        2195     11.96%     87.47% |        2301     12.53%    100.00% (Unspecified)
system.caches.L2Cache_Controller.Ack::total        18357                       (Unspecified)
system.caches.L2Cache_Controller.Ack_all |        1256     17.52%     17.52% |        1111     15.50%     33.02% |         868     12.11%     45.12% |         713      9.95%     55.07% |         827     11.54%     66.61% |         682      9.51%     76.12% |         699      9.75%     85.87% |        1013     14.13%    100.00% (Unspecified)
system.caches.L2Cache_Controller.Ack_all::total         7169                       (Unspecified)
system.caches.L2Cache_Controller.Unblock |          87     38.84%     38.84% |          44     19.64%     58.48% |          10      4.46%     62.95% |           8      3.57%     66.52% |           1      0.45%     66.96% |           3      1.34%     68.30% |          69     30.80%     99.11% |           2      0.89%    100.00% (Unspecified)
system.caches.L2Cache_Controller.Unblock::total          224                       (Unspecified)
system.caches.L2Cache_Controller.Exclusive_Unblock |      384744     12.52%     12.52% |      384475     12.51%     25.03% |      383107     12.47%     37.50% |      383897     12.49%     49.99% |      383562     12.48%     62.48% |      384509     12.51%     74.99% |      384089     12.50%     87.49% |      384417     12.51%    100.00% (Unspecified)
system.caches.L2Cache_Controller.Exclusive_Unblock::total      3072800                       (Unspecified)
system.caches.L2Cache_Controller.NP.L1_GET_INSTR |         532     13.26%     13.26% |         495     12.34%     25.60% |         531     13.24%     38.83% |         486     12.11%     50.95% |         518     12.91%     63.86% |         447     11.14%     75.00% |         430     10.72%     85.72% |         573     14.28%    100.00% (Unspecified)
system.caches.L2Cache_Controller.NP.L1_GET_INSTR::total         4012                       (Unspecified)
system.caches.L2Cache_Controller.NP.L1_GETS |      380506     12.51%     12.51% |      380563     12.51%     25.02% |      379701     12.48%     37.50% |      380363     12.50%     50.01% |      380224     12.50%     62.51% |      380025     12.49%     75.00% |      380254     12.50%     87.50% |      380252     12.50%    100.00% (Unspecified)
system.caches.L2Cache_Controller.NP.L1_GETS::total      3041888                       (Unspecified)
system.caches.L2Cache_Controller.NP.L1_GETX |        4136     13.74%     13.74% |        3816     12.68%     26.41% |        3294     10.94%     37.35% |        3436     11.41%     48.77% |        3273     10.87%     59.64% |        4406     14.63%     74.27% |        3692     12.26%     86.54% |        4053     13.46%    100.00% (Unspecified)
system.caches.L2Cache_Controller.NP.L1_GETX::total        30106                       (Unspecified)
system.caches.L2Cache_Controller.SS.L1_GET_INSTR |        4172     12.73%     12.73% |        4817     14.69%     27.42% |        4018     12.26%     39.68% |        2471      7.54%     47.21% |        4146     12.65%     59.86% |        4447     13.57%     73.43% |        4327     13.20%     86.63% |        4384     13.37%    100.00% (Unspecified)
system.caches.L2Cache_Controller.SS.L1_GET_INSTR::total        32782                       (Unspecified)
system.caches.L2Cache_Controller.SS.L1_GETS |        4327     24.51%     24.51% |        2551     14.45%     38.95% |        3132     17.74%     56.69% |        1540      8.72%     65.41% |        1582      8.96%     74.37% |        1244      7.05%     81.42% |         981      5.56%     86.97% |        2300     13.03%    100.00% (Unspecified)
system.caches.L2Cache_Controller.SS.L1_GETS::total        17657                       (Unspecified)
system.caches.L2Cache_Controller.SS.L1_GETX |          67     66.34%     66.34% |           0      0.00%     66.34% |           0      0.00%     66.34% |           0      0.00%     66.34% |           0      0.00%     66.34% |           0      0.00%     66.34% |          34     33.66%    100.00% |           0      0.00%    100.00% (Unspecified)
system.caches.L2Cache_Controller.SS.L1_GETX::total          101                       (Unspecified)
system.caches.L2Cache_Controller.SS.L1_UPGRADE |           0      0.00%      0.00% |          34    100.00%    100.00% |           0      0.00%    100.00% |           0      0.00%    100.00% |           0      0.00%    100.00% |           0      0.00%    100.00% |           0      0.00%    100.00% |           0      0.00%    100.00% (Unspecified)
system.caches.L2Cache_Controller.SS.L1_UPGRADE::total           34                       (Unspecified)
system.caches.L2Cache_Controller.SS.L2_Replacement_clean |         533     13.58%     13.58% |         480     12.23%     25.80% |         517     13.17%     38.97% |         479     12.20%     51.17% |         497     12.66%     63.83% |         427     10.88%     74.71% |         439     11.18%     85.89% |         554     14.11%    100.00% (Unspecified)
system.caches.L2Cache_Controller.SS.L2_Replacement_clean::total         3926                       (Unspecified)
system.caches.L2Cache_Controller.M.L1_GET_INSTR |           0      0.00%      0.00% |           0      0.00%      0.00% |           0      0.00%      0.00% |           0      0.00%      0.00% |           0      0.00%      0.00% |           0      0.00%      0.00% |           0      0.00%      0.00% |           1    100.00%    100.00% (Unspecified)
system.caches.L2Cache_Controller.M.L1_GET_INSTR::total            1                       (Unspecified)
system.caches.L2Cache_Controller.M.L1_GETS |          30     11.49%     11.49% |          34     13.03%     24.52% |          19      7.28%     31.80% |          37     14.18%     45.98% |          51     19.54%     65.52% |          26      9.96%     75.48% |          26      9.96%     85.44% |          38     14.56%    100.00% (Unspecified)
system.caches.L2Cache_Controller.M.L1_GETS::total          261                       (Unspecified)
system.caches.L2Cache_Controller.M.L1_GETX |          24      5.07%      5.07% |          33      6.98%     12.05% |         100     21.14%     33.19% |          69     14.59%     47.78% |          22      4.65%     52.43% |          55     11.63%     64.06% |          85     17.97%     82.03% |          85     17.97%    100.00% (Unspecified)
system.caches.L2Cache_Controller.M.L1_GETX::total          473                       (Unspecified)
system.caches.L2Cache_Controller.M.L2_Replacement |        9503     12.73%     12.73% |        8977     12.02%     24.75% |        8627     11.56%     36.31% |        9374     12.56%     48.86% |        8856     11.86%     60.73% |       10170     13.62%     74.35% |        9347     12.52%     86.87% |        9804     13.13%    100.00% (Unspecified)
system.caches.L2Cache_Controller.M.L2_Replacement::total        74658                       (Unspecified)
system.caches.L2Cache_Controller.M.L2_Replacement_clean |      371428     12.50%     12.50% |      371822     12.51%     25.01% |      371221     12.49%     37.50% |      371454     12.50%     50.00% |      371679     12.51%     62.51% |      371396     12.50%     75.01% |      371599     12.50%     87.51% |      371177     12.49%    100.00% (Unspecified)
system.caches.L2Cache_Controller.M.L2_Replacement_clean::total      2971776                       (Unspecified)
system.caches.L2Cache_Controller.MT.L1_GETS |          87     38.84%     38.84% |          44     19.64%     58.48% |          10      4.46%     62.95% |           8      3.57%     66.52% |           1      0.45%     66.96% |           3      1.34%     68.30% |          69     30.80%     99.11% |           2      0.89%    100.00% (Unspecified)
system.caches.L2Cache_Controller.MT.L1_GETS::total          224                       (Unspecified)
system.caches.L2Cache_Controller.MT.L1_PUTX |      377673     12.50%     12.50% |      377559     12.50%     25.00% |      376618     12.47%     37.47% |      377604     12.50%     49.97% |      377264     12.49%     62.46% |      378325     12.52%     74.99% |      377728     12.51%     87.49% |      377788     12.51%    100.00% (Unspecified)
system.caches.L2Cache_Controller.MT.L1_PUTX::total      3020559                       (Unspecified)
system.caches.L2Cache_Controller.MT.L2_Replacement |           8      5.16%      5.16% |          16     10.32%     15.48% |          43     27.74%     43.23% |          22     14.19%     57.42% |           1      0.65%     58.06% |           3      1.94%     60.00% |          26     16.77%     76.77% |          36     23.23%    100.00% (Unspecified)
system.caches.L2Cache_Controller.MT.L2_Replacement::total          155                       (Unspecified)
system.caches.L2Cache_Controller.MT.L2_Replacement_clean |        3702     14.52%     14.52% |        3579     14.04%     28.56% |        3118     12.23%     40.79% |        2956     11.60%     52.39% |        2982     11.70%     64.09% |        2882     11.31%     75.40% |        2965     11.63%     87.03% |        3307     12.97%    100.00% (Unspecified)
system.caches.L2Cache_Controller.MT.L2_Replacement_clean::total        25491                       (Unspecified)
system.caches.L2Cache_Controller.M_I.L1_GET_INSTR |           0      0.00%      0.00% |           0      0.00%      0.00% |           0      0.00%      0.00% |           0      0.00%      0.00% |           0      0.00%      0.00% |           0      0.00%      0.00% |           0      0.00%      0.00% |         131    100.00%    100.00% (Unspecified)
system.caches.L2Cache_Controller.M_I.L1_GET_INSTR::total          131                       (Unspecified)
system.caches.L2Cache_Controller.M_I.L1_GETX |         113     12.81%     12.81% |         114     12.93%     25.74% |         112     12.70%     38.44% |          98     11.11%     49.55% |         108     12.24%     61.79% |         108     12.24%     74.04% |         120     13.61%     87.64% |         109     12.36%    100.00% (Unspecified)
system.caches.L2Cache_Controller.M_I.L1_GETX::total          882                       (Unspecified)
system.caches.L2Cache_Controller.M_I.Mem_Ack |      385174     12.52%     12.52% |      384874     12.51%     25.03% |      383526     12.47%     37.50% |      384285     12.49%     50.00% |      384015     12.48%     62.48% |      384878     12.51%     74.99% |      384376     12.50%     87.49% |      384878     12.51%    100.00% (Unspecified)
system.caches.L2Cache_Controller.M_I.Mem_Ack::total      3076006                       (Unspecified)
system.caches.L2Cache_Controller.MT_I.WB_Data |           7      4.55%      4.55% |          16     10.39%     14.94% |          43     27.92%     42.86% |          22     14.29%     57.14% |           1      0.65%     57.79% |           3      1.95%     59.74% |          26     16.88%     76.62% |          36     23.38%    100.00% (Unspecified)
system.caches.L2Cache_Controller.MT_I.WB_Data::total          154                       (Unspecified)
system.caches.L2Cache_Controller.MT_I.Ack_all |           1    100.00%    100.00% |           0      0.00%    100.00% |           0      0.00%    100.00% |           0      0.00%    100.00% |           0      0.00%    100.00% |           0      0.00%    100.00% |           0      0.00%    100.00% |           0      0.00%    100.00% (Unspecified)
system.caches.L2Cache_Controller.MT_I.Ack_all::total            1                       (Unspecified)
system.caches.L2Cache_Controller.MCT_I.WB_Data |        2980     13.39%     13.39% |        2948     13.25%     26.64% |        2767     12.44%     39.08% |        2722     12.23%     51.31% |        2652     11.92%     63.23% |        2627     11.81%     75.04% |        2705     12.16%     87.20% |        2848     12.80%    100.00% (Unspecified)
system.caches.L2Cache_Controller.MCT_I.WB_Data::total        22249                       (Unspecified)
system.caches.L2Cache_Controller.MCT_I.Ack_all |         722     22.27%     22.27% |         631     19.46%     41.73% |         351     10.83%     52.56% |         234      7.22%     59.78% |         330     10.18%     69.96% |         255      7.87%     77.82% |         260      8.02%     85.84% |         459     14.16%    100.00% (Unspecified)
system.caches.L2Cache_Controller.MCT_I.Ack_all::total         3242                       (Unspecified)
system.caches.L2Cache_Controller.I_I.L1_GET_INSTR |           0      0.00%      0.00% |           0      0.00%      0.00% |           0      0.00%      0.00% |           0      0.00%      0.00% |           0      0.00%      0.00% |           0      0.00%      0.00% |           0      0.00%      0.00% |           6    100.00%    100.00% (Unspecified)
system.caches.L2Cache_Controller.I_I.L1_GET_INSTR::total            6                       (Unspecified)
system.caches.L2Cache_Controller.I_I.Ack |        2512     13.68%     13.68% |        1982     10.80%     24.48% |        2267     12.35%     36.83% |        2405     13.10%     49.93% |        2388     13.01%     62.94% |        2307     12.57%     75.51% |        2195     11.96%     87.47% |        2301     12.53%    100.00% (Unspecified)
system.caches.L2Cache_Controller.I_I.Ack::total        18357                       (Unspecified)
system.caches.L2Cache_Controller.I_I.Ack_all |         533     13.58%     13.58% |         480     12.23%     25.80% |         517     13.17%     38.97% |         479     12.20%     51.17% |         497     12.66%     63.83% |         427     10.88%     74.71% |         439     11.18%     85.89% |         554     14.11%    100.00% (Unspecified)
system.caches.L2Cache_Controller.I_I.Ack_all::total         3926                       (Unspecified)
system.caches.L2Cache_Controller.ISS.L1_GETS |          17     29.31%     29.31% |           5      8.62%     37.93% |           7     12.07%     50.00% |           7     12.07%     62.07% |           8     13.79%     75.86% |           2      3.45%     79.31% |           1      1.72%     81.03% |          11     18.97%    100.00% (Unspecified)
system.caches.L2Cache_Controller.ISS.L1_GETS::total           58                       (Unspecified)
system.caches.L2Cache_Controller.ISS.Mem_Data |      380487     12.51%     12.51% |      380558     12.51%     25.02% |      379694     12.48%     37.50% |      380355     12.50%     50.01% |      380216     12.50%     62.51% |      380022     12.49%     75.00% |      380252     12.50%     87.50% |      380241     12.50%    100.00% (Unspecified)
system.caches.L2Cache_Controller.ISS.Mem_Data::total      3041825                       (Unspecified)
system.caches.L2Cache_Controller.IS.L1_GET_INSTR |         152     13.01%     13.01% |         131     11.22%     24.23% |          87      7.45%     31.68% |          74      6.34%     38.01% |          85      7.28%     45.29% |          81      6.93%     52.23% |         111      9.50%     61.73% |         447     38.27%    100.00% (Unspecified)
system.caches.L2Cache_Controller.IS.L1_GET_INSTR::total         1168                       (Unspecified)
system.caches.L2Cache_Controller.IS.L1_GETS |          77     33.48%     33.48% |          18      7.83%     41.30% |          29     12.61%     53.91% |          21      9.13%     63.04% |          20      8.70%     71.74% |          10      4.35%     76.09% |           3      1.30%     77.39% |          52     22.61%    100.00% (Unspecified)
system.caches.L2Cache_Controller.IS.L1_GETS::total          230                       (Unspecified)
system.caches.L2Cache_Controller.IS.Mem_Data |         549     13.49%     13.49% |         500     12.29%     25.77% |         538     13.22%     38.99% |         493     12.11%     51.11% |         526     12.92%     64.03% |         449     11.03%     75.06% |         431     10.59%     85.65% |         584     14.35%    100.00% (Unspecified)
system.caches.L2Cache_Controller.IS.Mem_Data::total         4070                       (Unspecified)
system.caches.L2Cache_Controller.IM.Mem_Data |        4136     13.74%     13.74% |        3816     12.68%     26.41% |        3294     10.94%     37.35% |        3436     11.41%     48.77% |        3273     10.87%     59.64% |        4406     14.63%     74.27% |        3692     12.26%     86.54% |        4053     13.46%    100.00% (Unspecified)
system.caches.L2Cache_Controller.IM.Mem_Data::total        30106                       (Unspecified)
system.caches.L2Cache_Controller.SS_MB.Exclusive_Unblock |          67     49.63%     49.63% |          34     25.19%     74.81% |           0      0.00%     74.81% |           0      0.00%     74.81% |           0      0.00%     74.81% |           0      0.00%     74.81% |          34     25.19%    100.00% |           0      0.00%    100.00% (Unspecified)
system.caches.L2Cache_Controller.SS_MB.Exclusive_Unblock::total          135                       (Unspecified)
system.caches.L2Cache_Controller.MT_MB.Exclusive_Unblock |      384677     12.52%     12.52% |      384441     12.51%     25.03% |      383107     12.47%     37.50% |      383897     12.49%     49.99% |      383562     12.48%     62.48% |      384509     12.51%     74.99% |      384055     12.50%     87.49% |      384417     12.51%    100.00% (Unspecified)
system.caches.L2Cache_Controller.MT_MB.Exclusive_Unblock::total      3072665                       (Unspecified)
system.caches.L2Cache_Controller.MT_IIB.L1_GETS |           0      0.00%      0.00% |           2      7.14%      7.14% |          12     42.86%     50.00% |           0      0.00%     50.00% |           0      0.00%     50.00% |           6     21.43%     71.43% |           8     28.57%    100.00% |           0      0.00%    100.00% (Unspecified)
system.caches.L2Cache_Controller.MT_IIB.L1_GETS::total           28                       (Unspecified)
system.caches.L2Cache_Controller.MT_IIB.WB_Data |          68     50.00%     50.00% |          34     25.00%     75.00% |           0      0.00%     75.00% |           0      0.00%     75.00% |           0      0.00%     75.00% |           0      0.00%     75.00% |          34     25.00%    100.00% |           0      0.00%    100.00% (Unspecified)
system.caches.L2Cache_Controller.MT_IIB.WB_Data::total          136                       (Unspecified)
system.caches.L2Cache_Controller.MT_IIB.WB_Data_clean |          19     21.59%     21.59% |          10     11.36%     32.95% |          10     11.36%     44.32% |           8      9.09%     53.41% |           1      1.14%     54.55% |           3      3.41%     57.95% |          35     39.77%     97.73% |           2      2.27%    100.00% (Unspecified)
system.caches.L2Cache_Controller.MT_IIB.WB_Data_clean::total           88                       (Unspecified)
system.caches.L2Cache_Controller.MT_SB.L1_GETS |           1     50.00%     50.00% |           1     50.00%    100.00% |           0      0.00%    100.00% |           0      0.00%    100.00% |           0      0.00%    100.00% |           0      0.00%    100.00% |           0      0.00%    100.00% |           0      0.00%    100.00% (Unspecified)
system.caches.L2Cache_Controller.MT_SB.L1_GETS::total            2                       (Unspecified)
system.caches.L2Cache_Controller.MT_SB.Unblock |          87     38.84%     38.84% |          44     19.64%     58.48% |          10      4.46%     62.95% |           8      3.57%     66.52% |           1      0.45%     66.96% |           3      1.34%     68.30% |          69     30.80%     99.11% |           2      0.89%    100.00% (Unspecified)
system.caches.L2Cache_Controller.MT_SB.Unblock::total          224                       (Unspecified)
system.caches.RequestType.LD.latency_hist_seqr::bucket_size          512                       (Unspecified)
system.caches.RequestType.LD.latency_hist_seqr::max_bucket         5119                       (Unspecified)
system.caches.RequestType.LD.latency_hist_seqr::samples     48661614                       (Unspecified)
system.caches.RequestType.LD.latency_hist_seqr::mean    22.603626                       (Unspecified)
system.caches.RequestType.LD.latency_hist_seqr::gmean     1.436369                       (Unspecified)
system.caches.RequestType.LD.latency_hist_seqr::stdev    97.840985                       (Unspecified)
system.caches.RequestType.LD.latency_hist_seqr |    48580112     99.83%     99.83% |       46768      0.10%     99.93% |         153      0.00%     99.93% |       14835      0.03%     99.96% |       19383      0.04%    100.00% |         357      0.00%    100.00% |           6      0.00%    100.00% |           0      0.00%    100.00% |           0      0.00%    100.00% |           0      0.00%    100.00% (Unspecified)
system.caches.RequestType.LD.latency_hist_seqr::total     48661614                       (Unspecified)
system.caches.RequestType.LD.hit_latency_hist_seqr::bucket_size            1                       (Unspecified)
system.caches.RequestType.LD.hit_latency_hist_seqr::max_bucket            9                       (Unspecified)
system.caches.RequestType.LD.hit_latency_hist_seqr::samples     45601301                       (Unspecified)
system.caches.RequestType.LD.hit_latency_hist_seqr::mean     1.000006                       (Unspecified)
system.caches.RequestType.LD.hit_latency_hist_seqr::gmean     1.000004                       (Unspecified)
system.caches.RequestType.LD.hit_latency_hist_seqr::stdev     0.002415                       (Unspecified)
system.caches.RequestType.LD.hit_latency_hist_seqr |           0      0.00%      0.00% |    45601035    100.00%    100.00% |         266      0.00%    100.00% |           0      0.00%    100.00% |           0      0.00%    100.00% |           0      0.00%    100.00% |           0      0.00%    100.00% |           0      0.00%    100.00% |           0      0.00%    100.00% |           0      0.00%    100.00% (Unspecified)
system.caches.RequestType.LD.hit_latency_hist_seqr::total     45601301                       (Unspecified)
system.caches.RequestType.LD.miss_latency_hist_seqr::bucket_size          512                       (Unspecified)
system.caches.RequestType.LD.miss_latency_hist_seqr::max_bucket         5119                       (Unspecified)
system.caches.RequestType.LD.miss_latency_hist_seqr::samples      3060313                       (Unspecified)
system.caches.RequestType.LD.miss_latency_hist_seqr::mean   344.516178                       (Unspecified)
system.caches.RequestType.LD.miss_latency_hist_seqr::gmean   316.695035                       (Unspecified)
system.caches.RequestType.LD.miss_latency_hist_seqr::stdev   204.045440                       (Unspecified)
system.caches.RequestType.LD.miss_latency_hist_seqr |     2978811     97.34%     97.34% |       46768      1.53%     98.87% |         153      0.00%     98.87% |       14835      0.48%     99.35% |       19383      0.63%     99.99% |         357      0.01%    100.00% |           6      0.00%    100.00% |           0      0.00%    100.00% |           0      0.00%    100.00% |           0      0.00%    100.00% (Unspecified)
system.caches.RequestType.LD.miss_latency_hist_seqr::total      3060313                       (Unspecified)
system.caches.RequestType.ST.latency_hist_seqr::bucket_size          256                       (Unspecified)
system.caches.RequestType.ST.latency_hist_seqr::max_bucket         2559                       (Unspecified)
system.caches.RequestType.ST.latency_hist_seqr::samples     48576690                       (Unspecified)
system.caches.RequestType.ST.latency_hist_seqr::mean     1.026220                       (Unspecified)
system.caches.RequestType.ST.latency_hist_seqr::gmean     1.000470                       (Unspecified)
system.caches.RequestType.ST.latency_hist_seqr::stdev     3.646249                       (Unspecified)
system.caches.RequestType.ST.latency_hist_seqr |    48574304    100.00%    100.00% |        2143      0.00%    100.00% |         155      0.00%    100.00% |          18      0.00%    100.00% |           3      0.00%    100.00% |           9      0.00%    100.00% |          25      0.00%    100.00% |          14      0.00%    100.00% |          14      0.00%    100.00% |           5      0.00%    100.00% (Unspecified)
system.caches.RequestType.ST.latency_hist_seqr::total     48576690                       (Unspecified)
system.caches.RequestType.ST.hit_latency_hist_seqr::bucket_size           32                       (Unspecified)
system.caches.RequestType.ST.hit_latency_hist_seqr::max_bucket          319                       (Unspecified)
system.caches.RequestType.ST.hit_latency_hist_seqr::samples     48572744                       (Unspecified)
system.caches.RequestType.ST.hit_latency_hist_seqr::mean     1.000037                       (Unspecified)
system.caches.RequestType.ST.hit_latency_hist_seqr::gmean     1.000018                       (Unspecified)
system.caches.RequestType.ST.hit_latency_hist_seqr::stdev     0.042354                       (Unspecified)
system.caches.RequestType.ST.hit_latency_hist_seqr |    48572740    100.00%    100.00% |           3      0.00%    100.00% |           0      0.00%    100.00% |           0      0.00%    100.00% |           0      0.00%    100.00% |           0      0.00%    100.00% |           0      0.00%    100.00% |           0      0.00%    100.00% |           1      0.00%    100.00% |           0      0.00%    100.00% (Unspecified)
system.caches.RequestType.ST.hit_latency_hist_seqr::total     48572744                       (Unspecified)
system.caches.RequestType.ST.miss_latency_hist_seqr::bucket_size          256                       (Unspecified)
system.caches.RequestType.ST.miss_latency_hist_seqr::max_bucket         2559                       (Unspecified)
system.caches.RequestType.ST.miss_latency_hist_seqr::samples         3946                       (Unspecified)
system.caches.RequestType.ST.miss_latency_hist_seqr::mean   323.322605                       (Unspecified)
system.caches.RequestType.ST.miss_latency_hist_seqr::gmean   260.338104                       (Unspecified)
system.caches.RequestType.ST.miss_latency_hist_seqr::stdev   244.494476                       (Unspecified)
system.caches.RequestType.ST.miss_latency_hist_seqr |        1561     39.56%     39.56% |        2142     54.28%     93.84% |         155      3.93%     97.77% |          18      0.46%     98.23% |           3      0.08%     98.30% |           9      0.23%     98.53% |          25      0.63%     99.16% |          14      0.35%     99.52% |          14      0.35%     99.87% |           5      0.13%    100.00% (Unspecified)
system.caches.RequestType.ST.miss_latency_hist_seqr::total         3946                       (Unspecified)
system.caches.RequestType.IFETCH.latency_hist_seqr::bucket_size          256                       (Unspecified)
system.caches.RequestType.IFETCH.latency_hist_seqr::max_bucket         2559                       (Unspecified)
system.caches.RequestType.IFETCH.latency_hist_seqr::samples     97104870                       (Unspecified)
system.caches.RequestType.IFETCH.latency_hist_seqr::mean     1.018519                       (Unspecified)
system.caches.RequestType.IFETCH.latency_hist_seqr::gmean     1.001165                       (Unspecified)
system.caches.RequestType.IFETCH.latency_hist_seqr::stdev     2.181200                       (Unspecified)
system.caches.RequestType.IFETCH.latency_hist_seqr |    97102824    100.00%    100.00% |        1861      0.00%    100.00% |         148      0.00%    100.00% |           6      0.00%    100.00% |           6      0.00%    100.00% |          15      0.00%    100.00% |          10      0.00%    100.00% |           0      0.00%    100.00% |           0      0.00%    100.00% |           0      0.00%    100.00% (Unspecified)
system.caches.RequestType.IFETCH.latency_hist_seqr::total     97104870                       (Unspecified)
system.caches.RequestType.IFETCH.hit_latency_hist_seqr::bucket_size            1                       (Unspecified)
system.caches.RequestType.IFETCH.hit_latency_hist_seqr::max_bucket            9                       (Unspecified)
system.caches.RequestType.IFETCH.hit_latency_hist_seqr::samples     97066907                       (Unspecified)
system.caches.RequestType.IFETCH.hit_latency_hist_seqr::mean            1                       (Unspecified)
system.caches.RequestType.IFETCH.hit_latency_hist_seqr::gmean            1                       (Unspecified)
system.caches.RequestType.IFETCH.hit_latency_hist_seqr |           0      0.00%      0.00% |    97066907    100.00%    100.00% |           0      0.00%    100.00% |           0      0.00%    100.00% |           0      0.00%    100.00% |           0      0.00%    100.00% |           0      0.00%    100.00% |           0      0.00%    100.00% |           0      0.00%    100.00% |           0      0.00%    100.00% (Unspecified)
system.caches.RequestType.IFETCH.hit_latency_hist_seqr::total     97066907                       (Unspecified)
system.caches.RequestType.IFETCH.miss_latency_hist_seqr::bucket_size          256                       (Unspecified)
system.caches.RequestType.IFETCH.miss_latency_hist_seqr::max_bucket         2559                       (Unspecified)
system.caches.RequestType.IFETCH.miss_latency_hist_seqr::samples        37963                       (Unspecified)
system.caches.RequestType.IFETCH.miss_latency_hist_seqr::mean    48.368438                       (Unspecified)
system.caches.RequestType.IFETCH.miss_latency_hist_seqr::gmean    19.660063                       (Unspecified)
system.caches.RequestType.IFETCH.miss_latency_hist_seqr::stdev    99.633498                       (Unspecified)
system.caches.RequestType.IFETCH.miss_latency_hist_seqr |       35917     94.61%     94.61% |        1861      4.90%     99.51% |         148      0.39%     99.90% |           6      0.02%     99.92% |           6      0.02%     99.93% |          15      0.04%     99.97% |          10      0.03%    100.00% |           0      0.00%    100.00% |           0      0.00%    100.00% |           0      0.00%    100.00% (Unspecified)
system.caches.RequestType.IFETCH.miss_latency_hist_seqr::total        37963                       (Unspecified)
system.caches.RequestType.RMW_Read.latency_hist_seqr::bucket_size          512                       (Unspecified)
system.caches.RequestType.RMW_Read.latency_hist_seqr::max_bucket         5119                       (Unspecified)
system.caches.RequestType.RMW_Read.latency_hist_seqr::samples     48405259                       (Unspecified)
system.caches.RequestType.RMW_Read.latency_hist_seqr::mean     1.078273                       (Unspecified)
system.caches.RequestType.RMW_Read.latency_hist_seqr::gmean     1.002558                       (Unspecified)
system.caches.RequestType.RMW_Read.latency_hist_seqr::stdev     5.312030                       (Unspecified)
system.caches.RequestType.RMW_Read.latency_hist_seqr |    48404698    100.00%    100.00% |         448      0.00%    100.00% |          23      0.00%    100.00% |          43      0.00%    100.00% |          34      0.00%    100.00% |          13      0.00%    100.00% |           0      0.00%    100.00% |           0      0.00%    100.00% |           0      0.00%    100.00% |           0      0.00%    100.00% (Unspecified)
system.caches.RequestType.RMW_Read.latency_hist_seqr::total     48405259                       (Unspecified)
system.caches.RequestType.RMW_Read.hit_latency_hist_seqr::bucket_size          256                       (Unspecified)
system.caches.RequestType.RMW_Read.hit_latency_hist_seqr::max_bucket         2559                       (Unspecified)
system.caches.RequestType.RMW_Read.hit_latency_hist_seqr::samples     48379098                       (Unspecified)
system.caches.RequestType.RMW_Read.hit_latency_hist_seqr::mean     1.002196                       (Unspecified)
system.caches.RequestType.RMW_Read.hit_latency_hist_seqr::gmean     1.000050                       (Unspecified)
system.caches.RequestType.RMW_Read.hit_latency_hist_seqr::stdev     1.196424                       (Unspecified)
system.caches.RequestType.RMW_Read.hit_latency_hist_seqr |    48378907    100.00%    100.00% |         172      0.00%    100.00% |           9      0.00%    100.00% |           1      0.00%    100.00% |           0      0.00%    100.00% |           0      0.00%    100.00% |           1      0.00%    100.00% |           3      0.00%    100.00% |           3      0.00%    100.00% |           2      0.00%    100.00% (Unspecified)
system.caches.RequestType.RMW_Read.hit_latency_hist_seqr::total     48379098                       (Unspecified)
system.caches.RequestType.RMW_Read.miss_latency_hist_seqr::bucket_size          512                       (Unspecified)
system.caches.RequestType.RMW_Read.miss_latency_hist_seqr::max_bucket         5119                       (Unspecified)
system.caches.RequestType.RMW_Read.miss_latency_hist_seqr::samples        26161                       (Unspecified)
system.caches.RequestType.RMW_Read.miss_latency_hist_seqr::mean   141.765796                       (Unspecified)
system.caches.RequestType.RMW_Read.miss_latency_hist_seqr::gmean   102.882632                       (Unspecified)
system.caches.RequestType.RMW_Read.miss_latency_hist_seqr::stdev   172.513768                       (Unspecified)
system.caches.RequestType.RMW_Read.miss_latency_hist_seqr |       25619     97.93%     97.93% |         438      1.67%     99.60% |          23      0.09%     99.69% |          39      0.15%     99.84% |          29      0.11%     99.95% |          13      0.05%    100.00% |           0      0.00%    100.00% |           0      0.00%    100.00% |           0      0.00%    100.00% |           0      0.00%    100.00% (Unspecified)
system.caches.RequestType.RMW_Read.miss_latency_hist_seqr::total        26161                       (Unspecified)
system.caches.RequestType.Locked_RMW_Read.latency_hist_seqr::bucket_size          256                       (Unspecified)
system.caches.RequestType.Locked_RMW_Read.latency_hist_seqr::max_bucket         2559                       (Unspecified)
system.caches.RequestType.Locked_RMW_Read.latency_hist_seqr::samples         1966                       (Unspecified)
system.caches.RequestType.Locked_RMW_Read.latency_hist_seqr::mean   111.133266                       (Unspecified)
system.caches.RequestType.Locked_RMW_Read.latency_hist_seqr::gmean     5.729828                       (Unspecified)
system.caches.RequestType.Locked_RMW_Read.latency_hist_seqr::stdev   228.727019                       (Unspecified)
system.caches.RequestType.Locked_RMW_Read.latency_hist_seqr |        1540     78.33%     78.33% |         384     19.53%     97.86% |          22      1.12%     98.98% |           2      0.10%     99.08% |           2      0.10%     99.19% |           2      0.10%     99.29% |           5      0.25%     99.54% |           5      0.25%     99.80% |           3      0.15%     99.95% |           1      0.05%    100.00% (Unspecified)
system.caches.RequestType.Locked_RMW_Read.latency_hist_seqr::total         1966                       (Unspecified)
system.caches.RequestType.Locked_RMW_Read.hit_latency_hist_seqr::bucket_size            1                       (Unspecified)
system.caches.RequestType.Locked_RMW_Read.hit_latency_hist_seqr::max_bucket            9                       (Unspecified)
system.caches.RequestType.Locked_RMW_Read.hit_latency_hist_seqr::samples         1359                       (Unspecified)
system.caches.RequestType.Locked_RMW_Read.hit_latency_hist_seqr::mean            1                       (Unspecified)
system.caches.RequestType.Locked_RMW_Read.hit_latency_hist_seqr::gmean            1                       (Unspecified)
system.caches.RequestType.Locked_RMW_Read.hit_latency_hist_seqr |           0      0.00%      0.00% |        1359    100.00%    100.00% |           0      0.00%    100.00% |           0      0.00%    100.00% |           0      0.00%    100.00% |           0      0.00%    100.00% |           0      0.00%    100.00% |           0      0.00%    100.00% |           0      0.00%    100.00% |           0      0.00%    100.00% (Unspecified)
system.caches.RequestType.Locked_RMW_Read.hit_latency_hist_seqr::total         1359                       (Unspecified)
system.caches.RequestType.Locked_RMW_Read.miss_latency_hist_seqr::bucket_size          256                       (Unspecified)
system.caches.RequestType.Locked_RMW_Read.miss_latency_hist_seqr::max_bucket         2559                       (Unspecified)
system.caches.RequestType.Locked_RMW_Read.miss_latency_hist_seqr::samples          607                       (Unspecified)
system.caches.RequestType.Locked_RMW_Read.miss_latency_hist_seqr::mean   357.708402                       (Unspecified)
system.caches.RequestType.Locked_RMW_Read.miss_latency_hist_seqr::gmean   285.449656                       (Unspecified)
system.caches.RequestType.Locked_RMW_Read.miss_latency_hist_seqr::stdev   285.548790                       (Unspecified)
system.caches.RequestType.Locked_RMW_Read.miss_latency_hist_seqr |         181     29.82%     29.82% |         384     63.26%     93.08% |          22      3.62%     96.71% |           2      0.33%     97.03% |           2      0.33%     97.36% |           2      0.33%     97.69% |           5      0.82%     98.52% |           5      0.82%     99.34% |           3      0.49%     99.84% |           1      0.16%    100.00% (Unspecified)
system.caches.RequestType.Locked_RMW_Read.miss_latency_hist_seqr::total          607                       (Unspecified)
system.caches.RequestType.Locked_RMW_Write.latency_hist_seqr::bucket_size            1                       (Unspecified)
system.caches.RequestType.Locked_RMW_Write.latency_hist_seqr::max_bucket            9                       (Unspecified)
system.caches.RequestType.Locked_RMW_Write.latency_hist_seqr::samples         1966                       (Unspecified)
system.caches.RequestType.Locked_RMW_Write.latency_hist_seqr::mean            1                       (Unspecified)
system.caches.RequestType.Locked_RMW_Write.latency_hist_seqr::gmean            1                       (Unspecified)
system.caches.RequestType.Locked_RMW_Write.latency_hist_seqr |           0      0.00%      0.00% |        1966    100.00%    100.00% |           0      0.00%    100.00% |           0      0.00%    100.00% |           0      0.00%    100.00% |           0      0.00%    100.00% |           0      0.00%    100.00% |           0      0.00%    100.00% |           0      0.00%    100.00% |           0      0.00%    100.00% (Unspecified)
system.caches.RequestType.Locked_RMW_Write.latency_hist_seqr::total         1966                       (Unspecified)
system.caches.RequestType.Locked_RMW_Write.hit_latency_hist_seqr::bucket_size            1                       (Unspecified)
system.caches.RequestType.Locked_RMW_Write.hit_latency_hist_seqr::max_bucket            9                       (Unspecified)
system.caches.RequestType.Locked_RMW_Write.hit_latency_hist_seqr::samples         1966                       (Unspecified)
system.caches.RequestType.Locked_RMW_Write.hit_latency_hist_seqr::mean            1                       (Unspecified)
system.caches.RequestType.Locked_RMW_Write.hit_latency_hist_seqr::gmean            1                       (Unspecified)
system.caches.RequestType.Locked_RMW_Write.hit_latency_hist_seqr |           0      0.00%      0.00% |        1966    100.00%    100.00% |           0      0.00%    100.00% |           0      0.00%    100.00% |           0      0.00%    100.00% |           0      0.00%    100.00% |           0      0.00%    100.00% |           0      0.00%    100.00% |           0      0.00%    100.00% |           0      0.00%    100.00% (Unspecified)
system.caches.RequestType.Locked_RMW_Write.hit_latency_hist_seqr::total         1966                       (Unspecified)
system.caches.controllers0.fullyBusyCycles          582                       # cycles for which number of transistions == max transitions (Unspecified)
system.caches.controllers0.delayHistogram::samples       781933                       # delay_histogram (Unspecified)
system.caches.controllers0.delayHistogram::mean     0.013413                       # delay_histogram (Unspecified)
system.caches.controllers0.delayHistogram::stdev     0.319211                       # delay_histogram (Unspecified)
system.caches.controllers0.delayHistogram::0-3       780575     99.83%     99.83% # delay_histogram (Unspecified)
system.caches.controllers0.delayHistogram::4-7          867      0.11%     99.94% # delay_histogram (Unspecified)
system.caches.controllers0.delayHistogram::8-11          302      0.04%     99.98% # delay_histogram (Unspecified)
system.caches.controllers0.delayHistogram::12-15          177      0.02%    100.00% # delay_histogram (Unspecified)
system.caches.controllers0.delayHistogram::16-19            7      0.00%    100.00% # delay_histogram (Unspecified)
system.caches.controllers0.delayHistogram::20-23            5      0.00%    100.00% # delay_histogram (Unspecified)
system.caches.controllers0.delayHistogram::total       781933                       # delay_histogram (Unspecified)
system.caches.controllers0.L1Dcache.m_demand_hits     17809119                       # Number of cache demand hits (Unspecified)
system.caches.controllers0.L1Dcache.m_demand_misses       461860                       # Number of cache demand misses (Unspecified)
system.caches.controllers0.L1Dcache.m_demand_accesses     18270979                       # Number of cache demand accesses (Unspecified)
system.caches.controllers0.L1Icache.m_demand_hits     12119522                       # Number of cache demand hits (Unspecified)
system.caches.controllers0.L1Icache.m_demand_misses         6430                       # Number of cache demand misses (Unspecified)
system.caches.controllers0.L1Icache.m_demand_accesses     12125952                       # Number of cache demand accesses (Unspecified)
system.caches.controllers0.mandatoryQueue.m_msg_count     30396931                       # Number of messages passed the buffer (Count)
system.caches.controllers0.mandatoryQueue.m_buf_msgs     0.000063                       # Average number of messages in buffer ((Count/Tick))
[...]
system.o3Cpu7.iew.idleCycles                        0                       # Number of cycles IEW is idle (Cycle)
system.o3Cpu7.iew.squashCycles                   1120                       # Number of cycles IEW is squashing (Cycle)
system.o3Cpu7.iew.blockCycles               126255440                       # Number of cycles IEW is blocking (Cycle)
system.o3Cpu7.iew.unblockCycles                564605                       # Number of cycles IEW is unblocking (Cycle)
system.o3Cpu7.iew.dispatchedInsts            84875692                       # Number of instructions dispatched to IQ (Count)
system.o3Cpu7.iew.dispSquashedInsts               113                       # Number of squashed instructions skipped by dispatch (Count)
system.o3Cpu7.iew.dispLoadInsts              12126638                       # Number of dispatched load instructions (Count)
system.o3Cpu7.iew.dispStoreInsts              6064461                       # Number of dispatched store instructions (Count)
system.o3Cpu7.iew.dispNonSpecInsts               1299                       # Number of dispatched non-speculative instructions (Count)
system.o3Cpu7.iew.iqFullEvents                 410345                       # Number of times the IQ has become full, causing a stall (Count)
system.o3Cpu7.iew.lsqFullEvents                 27989                       # Number of times the LSQ has become full, causing a stall (Count)
system.o3Cpu7.iew.memOrderViolationEvents          377                       # Number of memory order violations (Count)
system.o3Cpu7.iew.predictedTakenIncorrect          293                       # Number of branches that were predicted taken incorrectly (Count)
system.o3Cpu7.iew.predictedNotTakenIncorrect          472                       # Number of branches that were predicted not taken incorrectly (Count)
system.o3Cpu7.iew.branchMispredicts               765                       # Number of branch mispredicts detected at execute (Count)
system.o3Cpu7.iew.instsToCommit              84869422                       # Cumulative count of insts sent to commit (Count)
system.o3Cpu7.iew.writebackCount             84869258                       # Cumulative count of insts written-back (Count)
system.o3Cpu7.iew.producerInst               63705051                       # Number of instructions producing a value (Count)
system.o3Cpu7.iew.consumerInst               95121256                       # Number of instructions consuming a value (Count)
system.o3Cpu7.iew.wbRate                     0.505071                       # Insts written-back per cycle ((Count/Cycle))
system.o3Cpu7.iew.wbFanout                   0.669725                       # Average fanout of values written-back ((Count/Count))
system.o3Cpu7.interrupts.clk_domain.clock         3200                       # Clock period in ticks (Tick)
system.o3Cpu7.lsq0.forwLoads                    13330                       # Number of loads that had data forwarded from stores (Count)
system.o3Cpu7.lsq0.squashedLoads                 3097                       # Number of loads squashed (Count)
system.o3Cpu7.lsq0.ignoredResponses                 0                       # Number of memory responses ignored because the instruction is squashed (Count)
system.o3Cpu7.lsq0.memOrderViolation              377                       # Number of memory ordering violations (Count)
system.o3Cpu7.lsq0.squashedStores                1273                       # Number of stores squashed (Count)
system.o3Cpu7.lsq0.rescheduledLoads                 8                       # Number of loads that were rescheduled (Count)
system.o3Cpu7.lsq0.blockedByCache                   0                       # Number of times an access to memory failed due to the cache being blocked (Count)
system.o3Cpu7.lsq0.loadToUse::samples        12123531                       # Distribution of cycle latency between the first time a load is issued and its completion (Unspecified)
system.o3Cpu7.lsq0.loadToUse::mean          13.899309                       # Distribution of cycle latency between the first time a load is issued and its completion (Unspecified)
system.o3Cpu7.lsq0.loadToUse::stdev         70.609503                       # Distribution of cycle latency between the first time a load is issued and its completion (Unspecified)
system.o3Cpu7.lsq0.loadToUse::0-9            11738365     96.82%     96.82% # Distribution of cycle latency between the first time a load is issued and its completion (Unspecified)
system.o3Cpu7.lsq0.loadToUse::10-19               863      0.01%     96.83% # Distribution of cycle latency between the first time a load is issued and its completion (Unspecified)
system.o3Cpu7.lsq0.loadToUse::20-29               273      0.00%     96.83% # Distribution of cycle latency between the first time a load is issued and its completion (Unspecified)
system.o3Cpu7.lsq0.loadToUse::30-39               300      0.00%     96.83% # Distribution of cycle latency between the first time a load is issued and its completion (Unspecified)
system.o3Cpu7.lsq0.loadToUse::40-49               108      0.00%     96.84% # Distribution of cycle latency between the first time a load is issued and its completion (Unspecified)
system.o3Cpu7.lsq0.loadToUse::50-59                29      0.00%     96.84% # Distribution of cycle latency between the first time a load is issued and its completion (Unspecified)
system.o3Cpu7.lsq0.loadToUse::60-69                22      0.00%     96.84% # Distribution of cycle latency between the first time a load is issued and its completion (Unspecified)
system.o3Cpu7.lsq0.loadToUse::70-79              2300      0.02%     96.86% # Distribution of cycle latency between the first time a load is issued and its completion (Unspecified)
system.o3Cpu7.lsq0.loadToUse::80-89                81      0.00%     96.86% # Distribution of cycle latency between the first time a load is issued and its completion (Unspecified)
system.o3Cpu7.lsq0.loadToUse::90-99                23      0.00%     96.86% # Distribution of cycle latency between the first time a load is issued and its completion (Unspecified)
system.o3Cpu7.lsq0.loadToUse::100-109              19      0.00%     96.86% # Distribution of cycle latency between the first time a load is issued and its completion (Unspecified)
system.o3Cpu7.lsq0.loadToUse::110-119              11      0.00%     96.86% # Distribution of cycle latency between the first time a load is issued and its completion (Unspecified)
system.o3Cpu7.lsq0.loadToUse::120-129              30      0.00%     96.86% # Distribution of cycle latency between the first time a load is issued and its completion (Unspecified)
system.o3Cpu7.lsq0.loadToUse::130-139              26      0.00%     96.86% # Distribution of cycle latency between the first time a load is issued and its completion (Unspecified)
system.o3Cpu7.lsq0.loadToUse::140-149              12      0.00%     96.86% # Distribution of cycle latency between the first time a load is issued and its completion (Unspecified)
system.o3Cpu7.lsq0.loadToUse::150-159              12      0.00%     96.86% # Distribution of cycle latency between the first time a load is issued and its completion (Unspecified)
system.o3Cpu7.lsq0.loadToUse::160-169              11      0.00%     96.86% # Distribution of cycle latency between the first time a load is issued and its completion (Unspecified)
system.o3Cpu7.lsq0.loadToUse::170-179              11      0.00%     96.86% # Distribution of cycle latency between the first time a load is issued and its completion (Unspecified)
system.o3Cpu7.lsq0.loadToUse::180-189               6      0.00%     96.86% # Distribution of cycle latency between the first time a load is issued and its completion (Unspecified)
system.o3Cpu7.lsq0.loadToUse::190-199              20      0.00%     96.86% # Distribution of cycle latency between the first time a load is issued and its completion (Unspecified)
system.o3Cpu7.lsq0.loadToUse::200-209              64      0.00%     96.86% # Distribution of cycle latency between the first time a load is issued and its completion (Unspecified)
system.o3Cpu7.lsq0.loadToUse::210-219          102030      0.84%     97.70% # Distribution of cycle latency between the first time a load is issued and its completion (Unspecified)
system.o3Cpu7.lsq0.loadToUse::220-229            1639      0.01%     97.71% # Distribution of cycle latency between the first time a load is issued and its completion (Unspecified)
system.o3Cpu7.lsq0.loadToUse::230-239             936      0.01%     97.72% # Distribution of cycle latency between the first time a load is issued and its completion (Unspecified)
system.o3Cpu7.lsq0.loadToUse::240-249             616      0.01%     97.73% # Distribution of cycle latency between the first time a load is issued and its completion (Unspecified)
system.o3Cpu7.lsq0.loadToUse::250-259             455      0.00%     97.73% # Distribution of cycle latency between the first time a load is issued and its completion (Unspecified)
system.o3Cpu7.lsq0.loadToUse::260-269             655      0.01%     97.73% # Distribution of cycle latency between the first time a load is issued and its completion (Unspecified)
system.o3Cpu7.lsq0.loadToUse::270-279            1437      0.01%     97.75% # Distribution of cycle latency between the first time a load is issued and its completion (Unspecified)
system.o3Cpu7.lsq0.loadToUse::280-289           11810      0.10%     97.84% # Distribution of cycle latency between the first time a load is issued and its completion (Unspecified)
system.o3Cpu7.lsq0.loadToUse::290-299             808      0.01%     97.85% # Distribution of cycle latency between the first time a load is issued and its completion (Unspecified)
system.o3Cpu7.lsq0.loadToUse::overflows        260559      2.15%    100.00% # Distribution of cycle latency between the first time a load is issued and its completion (Unspecified)
system.o3Cpu7.lsq0.loadToUse::min_value             2                       # Distribution of cycle latency between the first time a load is issued and its completion (Unspecified)
system.o3Cpu7.lsq0.loadToUse::max_value          3343                       # Distribution of cycle latency between the first time a load is issued and its completion (Unspecified)
system.o3Cpu7.lsq0.loadToUse::total          12123531                       # Distribution of cycle latency between the first time a load is issued and its completion (Unspecified)
system.o3Cpu7.mmu.dtb.rdAccesses             12126803                       # TLB accesses on read requests (Count)
system.o3Cpu7.mmu.dtb.wrAccesses              6064515                       # TLB accesses on write requests (Count)
system.o3Cpu7.mmu.dtb.rdMisses                    952                       # TLB misses on read requests (Count)
system.o3Cpu7.mmu.dtb.wrMisses                    593                       # TLB misses on write requests (Count)
system.o3Cpu7.mmu.dtb.walker.power_state.pwrStateResidencyTicks::UNDEFINED  34616988200                       # Cumulative time (in ticks) in various power states (Tick)
system.o3Cpu7.mmu.itb.rdAccesses                    0                       # TLB accesses on read requests (Count)
system.o3Cpu7.mmu.itb.wrAccesses             12120897                       # TLB accesses on write requests (Count)
system.o3Cpu7.mmu.itb.rdMisses                      0                       # TLB misses on read requests (Count)
system.o3Cpu7.mmu.itb.wrMisses                     61                       # TLB misses on write requests (Count)
system.o3Cpu7.mmu.itb.walker.power_state.pwrStateResidencyTicks::UNDEFINED  34616988200                       # Cumulative time (in ticks) in various power states (Tick)
system.o3Cpu7.power_state.pwrStateResidencyTicks::OFF  34616988200                       # Cumulative time (in ticks) in various power states (Tick)
system.o3Cpu7.rename.squashCycles                1120                       # Number of cycles rename is squashing (Cycle)
system.o3Cpu7.rename.idleCycles               8657924                       # Number of cycles rename is idle (Cycle)
system.o3Cpu7.rename.blockCycles            131623639                       # Number of cycles rename is blocking (Cycle)
system.o3Cpu7.rename.serializeStallCycles       135830                       # count of cycles rename stalled for serializing inst (Cycle)
system.o3Cpu7.rename.runCycles               18385809                       # Number of cycles rename is running (Cycle)
system.o3Cpu7.rename.unblockCycles            9090966                       # Number of cycles rename is unblocking (Cycle)
system.o3Cpu7.rename.renamedInsts            84877615                       # Number of instructions processed by rename (Count)
system.o3Cpu7.rename.ROBFullEvents              18622                       # Number of times rename has blocked due to ROB full (Count)
system.o3Cpu7.rename.IQFullEvents             6393894                       # Number of times rename has blocked due to IQ full (Count)
system.o3Cpu7.rename.LQFullEvents               30959                       # Number of times rename has blocked due to LQ full (Count)
system.o3Cpu7.rename.SQFullEvents               39011                       # Number of times rename has blocked due to SQ full (Count)
system.o3Cpu7.rename.renamedOperands        193880070                       # Number of destination operands rename has renamed (Count)
system.o3Cpu7.rename.lookups                321203757                       # Number of register rename lookups that rename has made (Count)
system.o3Cpu7.rename.intLookups             139390681                       # Number of integer rename lookups (Count)
system.o3Cpu7.rename.committedMaps          193848903                       # Number of HB maps that are committed (Count)
system.o3Cpu7.rename.undoneMaps                 31023                       # Number of HB maps that are undone due to squashing (Count)
system.o3Cpu7.rename.serializing                 1321                       # count of serializing insts renamed (Count)
system.o3Cpu7.rename.tempSerializing             1349                       # count of temporary serializing insts renamed (Count)
system.o3Cpu7.rename.skidInsts               17493862                       # count of insts added to the skid buffer (Count)
system.o3Cpu7.rob.reads                     234964012                       # The number of ROB reads (Count)
system.o3Cpu7.rob.writes                    169755023                       # The number of ROB writes (Count)
system.o3Cpu7.thread_0.numInsts              48472933                       # Number of Instructions committed (Count)
system.o3Cpu7.thread_0.numOps                84856618                       # Number of Ops committed (Count)
system.o3Cpu7.thread_0.numMemRefs                   0                       # Number of Memory References (Count)
system.pc.bad_addr.power_state.pwrStateResidencyTicks::UNDEFINED  34616988200                       # Cumulative time (in ticks) in various power states (Tick)
system.pc.com_1.power_state.pwrStateResidencyTicks::UNDEFINED  34616988200                       # Cumulative time (in ticks) in various power states (Tick)
system.pc.default_bus.power_state.pwrStateResidencyTicks::UNDEFINED  34616988200                       # Cumulative time (in ticks) in various power states (Tick)
system.pc.empty_isa.power_state.pwrStateResidencyTicks::UNDEFINED  34616988200                       # Cumulative time (in ticks) in various power states (Tick)
system.pc.fake_com_2.power_state.pwrStateResidencyTicks::UNDEFINED  34616988200                       # Cumulative time (in ticks) in various power states (Tick)
system.pc.fake_com_3.power_state.pwrStateResidencyTicks::UNDEFINED  34616988200                       # Cumulative time (in ticks) in various power states (Tick)
system.pc.fake_com_4.power_state.pwrStateResidencyTicks::UNDEFINED  34616988200                       # Cumulative time (in ticks) in various power states (Tick)
system.pc.fake_floppy.power_state.pwrStateResidencyTicks::UNDEFINED  34616988200                       # Cumulative time (in ticks) in various power states (Tick)
system.pc.pci_host.power_state.pwrStateResidencyTicks::UNDEFINED  34616988200                       # Cumulative time (in ticks) in various power states (Tick)
system.pc.south_bridge.cmos.power_state.pwrStateResidencyTicks::UNDEFINED  34616988200                       # Cumulative time (in ticks) in various power states (Tick)
system.pc.south_bridge.dma1.power_state.pwrStateResidencyTicks::UNDEFINED  34616988200                       # Cumulative time (in ticks) in various power states (Tick)
system.pc.south_bridge.ide.disks0.IdeDisk.dmaReadFullPages            0                       # Number of full page size DMA reads (not PRD). (Count)
system.pc.south_bridge.ide.disks0.IdeDisk.dmaReadBytes            0                       # Number of bytes transfered via DMA reads (not PRD). (Byte)
system.pc.south_bridge.ide.disks0.IdeDisk.dmaReadTxs            0                       # Number of DMA read transactions (not PRD). (Count)
system.pc.south_bridge.ide.disks0.IdeDisk.dmaWriteFullPages            0                       # Number of full page size DMA writes. (Count)
system.pc.south_bridge.ide.disks0.IdeDisk.dmaWriteBytes            0                       # Number of bytes transfered via DMA writes. (Byte)
system.pc.south_bridge.ide.disks0.IdeDisk.dmaWriteTxs            0                       # Number of DMA write transactions. (Count)
system.pc.south_bridge.ide.disks1.IdeDisk.dmaReadFullPages            0                       # Number of full page size DMA reads (not PRD). (Count)
system.pc.south_bridge.ide.disks1.IdeDisk.dmaReadBytes            0                       # Number of bytes transfered via DMA reads (not PRD). (Byte)
system.pc.south_bridge.ide.disks1.IdeDisk.dmaReadTxs            0                       # Number of DMA read transactions (not PRD). (Count)
system.pc.south_bridge.ide.disks1.IdeDisk.dmaWriteFullPages            0                       # Number of full page size DMA writes. (Count)
system.pc.south_bridge.ide.disks1.IdeDisk.dmaWriteBytes            0                       # Number of bytes transfered via DMA writes. (Byte)
system.pc.south_bridge.ide.disks1.IdeDisk.dmaWriteTxs            0                       # Number of DMA write transactions. (Count)
system.pc.south_bridge.ide.power_state.pwrStateResidencyTicks::UNDEFINED  34616988200                       # Cumulative time (in ticks) in various power states (Tick)
system.pc.south_bridge.io_apic.power_state.pwrStateResidencyTicks::UNDEFINED  34616988200                       # Cumulative time (in ticks) in various power states (Tick)
system.pc.south_bridge.keyboard.power_state.pwrStateResidencyTicks::UNDEFINED  34616988200                       # Cumulative time (in ticks) in various power states (Tick)
system.pc.south_bridge.pic1.power_state.pwrStateResidencyTicks::UNDEFINED  34616988200                       # Cumulative time (in ticks) in various power states (Tick)
system.pc.south_bridge.pic2.power_state.pwrStateResidencyTicks::UNDEFINED  34616988200                       # Cumulative time (in ticks) in various power states (Tick)
system.pc.south_bridge.pit.power_state.pwrStateResidencyTicks::UNDEFINED  34616988200                       # Cumulative time (in ticks) in various power states (Tick)
system.pc.south_bridge.speaker.power_state.pwrStateResidencyTicks::UNDEFINED  34616988200                       # Cumulative time (in ticks) in various power states (Tick)
system.workload.inst.arm                            0                       # number of arm instructions executed (Count)
system.workload.inst.quiesce                        0                       # number of quiesce instructions executed (Count)

---------- End Simulation Statistics   ----------
