
---------- Begin Simulation Statistics ----------
simSeconds                                   0.032427                       # Number of seconds simulated (Second)
simTicks                                  32426798800                       # Number of ticks simulated (Tick)
finalTick                                104662130899400                       # Number of ticks from beginning of simulation (restored from checkpoints and never reset) (Tick)
simFreq                                  1000000000000                       # The number of ticks per simulated second ((Tick/Second))
hostSeconds                                   9577.09                       # Real time elapsed on the host (Second)
hostTickRate                                  3385873                       # The number of ticks simulated per host second (ticks/s) ((Tick/Second))
hostMemory                                   19979448                       # Number of bytes of host memory used (Byte)
simInsts                                    861478946                       # Number of instructions simulated (Count)
simOps                                     1804283797                       # Number of ops (including micro ops) simulated (Count)
hostInstRate                                    89952                       # Simulator instruction rate (inst/s) ((Count/Second))
hostOpRate                                     188396                       # Simulator op (including micro ops) rate (op/s) ((Count/Second))
system.caches.delayHistogram::bucket_size          128                       # delay histogram for all message (Unspecified)
system.caches.delayHistogram::max_bucket         1279                       # delay histogram for all message (Unspecified)
system.caches.delayHistogram::samples         9365048                       # delay histogram for all message (Unspecified)
system.caches.delayHistogram::mean           1.124268                       # delay histogram for all message (Unspecified)
system.caches.delayHistogram::stdev          2.879710                       # delay histogram for all message (Unspecified)
system.caches.delayHistogram             |     9365044    100.00%    100.00% |           2      0.00%    100.00% |           0      0.00%    100.00% |           0      0.00%    100.00% |           0      0.00%    100.00% |           1      0.00%    100.00% |           1      0.00%    100.00% |           0      0.00%    100.00% |           0      0.00%    100.00% |           0      0.00%    100.00% # delay histogram for all message (Unspecified)
system.caches.delayHistogram::total           9365048                       # delay histogram for all message (Unspecified)
system.caches.m_outstandReqHistSeqr::bucket_size            2                       (Unspecified)
system.caches.m_outstandReqHistSeqr::max_bucket           19                       (Unspecified)
system.caches.m_outstandReqHistSeqr::samples    476332838                       (Unspecified)
system.caches.m_outstandReqHistSeqr::mean     1.405031                       (Unspecified)
system.caches.m_outstandReqHistSeqr::gmean     1.295799                       (Unspecified)
system.caches.m_outstandReqHistSeqr::stdev     0.631647                       (Unspecified)
system.caches.m_outstandReqHistSeqr      |   318205199     66.80%     66.80% |   156430030     32.84%     99.64% |     1646416      0.35%     99.99% |       24394      0.01%     99.99% |       22798      0.00%    100.00% |        3922      0.00%    100.00% |          64      0.00%    100.00% |           4      0.00%    100.00% |          11      0.00%    100.00% |           0      0.00%    100.00% (Unspecified)
system.caches.m_outstandReqHistSeqr::total    476332838                       (Unspecified)
system.caches.m_latencyHistSeqr::bucket_size          512                       (Unspecified)
system.caches.m_latencyHistSeqr::max_bucket         5119                       (Unspecified)
system.caches.m_latencyHistSeqr::samples    476358224                       (Unspecified)
system.caches.m_latencyHistSeqr::mean        2.310666                       (Unspecified)
system.caches.m_latencyHistSeqr::gmean       1.017145                       (Unspecified)
system.caches.m_latencyHistSeqr::stdev      30.066613                       (Unspecified)
system.caches.m_latencyHistSeqr          |   475908866     99.91%     99.91% |      411063      0.09%     99.99% |       15939      0.00%    100.00% |       10573      0.00%    100.00% |        8130      0.00%    100.00% |        3474      0.00%    100.00% |         152      0.00%    100.00% |          26      0.00%    100.00% |           1      0.00%    100.00% |           0      0.00%    100.00% (Unspecified)
system.caches.m_latencyHistSeqr::total      476358224                       (Unspecified)
system.caches.m_hitLatencyHistSeqr::bucket_size          512                       (Unspecified)
system.caches.m_hitLatencyHistSeqr::max_bucket         5119                       (Unspecified)
system.caches.m_hitLatencyHistSeqr::samples    474969949                       (Unspecified)
system.caches.m_hitLatencyHistSeqr::mean     1.000337                       (Unspecified)
system.caches.m_hitLatencyHistSeqr::gmean     1.000041                       (Unspecified)
system.caches.m_hitLatencyHistSeqr::stdev     0.497993                       (Unspecified)
system.caches.m_hitLatencyHistSeqr       |   474969842    100.00%    100.00% |          83      0.00%    100.00% |          16      0.00%    100.00% |           5      0.00%    100.00% |           2      0.00%    100.00% |           1      0.00%    100.00% |           0      0.00%    100.00% |           0      0.00%    100.00% |           0      0.00%    100.00% |           0      0.00%    100.00% (Unspecified)
system.caches.m_hitLatencyHistSeqr::total    474969949                       (Unspecified)
system.caches.m_missLatencyHistSeqr::bucket_size          512                       (Unspecified)
system.caches.m_missLatencyHistSeqr::max_bucket         5119                       (Unspecified)
system.caches.m_missLatencyHistSeqr::samples      1388275                       (Unspecified)
system.caches.m_missLatencyHistSeqr::mean   450.612900                       (Unspecified)
system.caches.m_missLatencyHistSeqr::gmean   336.755889                       (Unspecified)
system.caches.m_missLatencyHistSeqr::stdev   329.457857                       (Unspecified)
system.caches.m_missLatencyHistSeqr      |      939024     67.64%     67.64% |      410980     29.60%     97.24% |       15923      1.15%     98.39% |       10568      0.76%     99.15% |        8128      0.59%     99.74% |        3473      0.25%     99.99% |         152      0.01%    100.00% |          26      0.00%    100.00% |           1      0.00%    100.00% |           0      0.00%    100.00% (Unspecified)
system.caches.m_missLatencyHistSeqr::total      1388275                       (Unspecified)
system.caches.delayVCHist.vnet_0::bucket_size          128                       # delay histogram for vnet_0 (Unspecified)
system.caches.delayVCHist.vnet_0::max_bucket         1279                       # delay histogram for vnet_0 (Unspecified)
system.caches.delayVCHist.vnet_0::samples      3963866                       # delay histogram for vnet_0 (Unspecified)
system.caches.delayVCHist.vnet_0::mean       2.618372                       # delay histogram for vnet_0 (Unspecified)
system.caches.delayVCHist.vnet_0::stdev      3.937408                       # delay histogram for vnet_0 (Unspecified)
system.caches.delayVCHist.vnet_0         |     3963862    100.00%    100.00% |           2      0.00%    100.00% |           0      0.00%    100.00% |           0      0.00%    100.00% |           0      0.00%    100.00% |           1      0.00%    100.00% |           1      0.00%    100.00% |           0      0.00%    100.00% |           0      0.00%    100.00% |           0      0.00%    100.00% # delay histogram for vnet_0 (Unspecified)
system.caches.delayVCHist.vnet_0::total       3963866                       # delay histogram for vnet_0 (Unspecified)
system.caches.delayVCHist.vnet_1::bucket_size            8                       # delay histogram for vnet_1 (Unspecified)
system.caches.delayVCHist.vnet_1::max_bucket           79                       # delay histogram for vnet_1 (Unspecified)
system.caches.delayVCHist.vnet_1::samples      5332262                       # delay histogram for vnet_1 (Unspecified)
system.caches.delayVCHist.vnet_1::mean       0.028112                       # delay histogram for vnet_1 (Unspecified)
system.caches.delayVCHist.vnet_1::stdev      0.403070                       # delay histogram for vnet_1 (Unspecified)
system.caches.delayVCHist.vnet_1         |     5328724     99.93%     99.93% |        3305      0.06%    100.00% |         205      0.00%    100.00% |          21      0.00%    100.00% |           6      0.00%    100.00% |           1      0.00%    100.00% |           0      0.00%    100.00% |           0      0.00%    100.00% |           0      0.00%    100.00% |           0      0.00%    100.00% # delay histogram for vnet_1 (Unspecified)
system.caches.delayVCHist.vnet_1::total       5332262                       # delay histogram for vnet_1 (Unspecified)
system.caches.delayVCHist.vnet_2::bucket_size            1                       # delay histogram for vnet_2 (Unspecified)
system.caches.delayVCHist.vnet_2::max_bucket            9                       # delay histogram for vnet_2 (Unspecified)
system.caches.delayVCHist.vnet_2::samples        68920                       # delay histogram for vnet_2 (Unspecified)
system.caches.delayVCHist.vnet_2::mean       0.000754                       # delay histogram for vnet_2 (Unspecified)
system.caches.delayVCHist.vnet_2::stdev      0.058015                       # delay histogram for vnet_2 (Unspecified)
system.caches.delayVCHist.vnet_2         |       68906     99.98%     99.98% |           0      0.00%     99.98% |           6      0.01%     99.99% |           0      0.00%     99.99% |           4      0.01%     99.99% |           0      0.00%     99.99% |           4      0.01%    100.00% |           0      0.00%    100.00% |           0      0.00%    100.00% |           0      0.00%    100.00% # delay histogram for vnet_2 (Unspecified)
system.caches.delayVCHist.vnet_2::total         68920                       # delay histogram for vnet_2 (Unspecified)
system.caches.L1Cache_Controller.Load    |    35500754     12.39%     12.39% |    36206462     12.63%     25.02% |    35906055     12.53%     37.54% |    35869272     12.51%     50.06% |    35842896     12.51%     62.56% |    35833534     12.50%     75.07% |    35601768     12.42%     87.49% |    35865975     12.51%    100.00% (Unspecified)
system.caches.L1Cache_Controller.Load::total    286626716                       (Unspecified)
system.caches.L1Cache_Controller.Ifetch  |    17811971     12.35%     12.35% |    18094018     12.54%     24.89% |    18124521     12.57%     37.46% |    18042172     12.51%     49.97% |    18003256     12.48%     62.45% |    18006759     12.48%     74.93% |    18127745     12.57%     87.50% |    18031373     12.50%    100.00% (Unspecified)
system.caches.L1Cache_Controller.Ifetch::total    144241815                       (Unspecified)
system.caches.L1Cache_Controller.Store   |     5518316     12.13%     12.13% |     5362614     11.79%     23.92% |     5946073     13.07%     36.99% |     5715984     12.57%     49.56% |     5614495     12.34%     61.90% |     5641054     12.40%     74.30% |     5984921     13.16%     87.46% |     5706237     12.54%    100.00% (Unspecified)
system.caches.L1Cache_Controller.Store::total     45489694                       (Unspecified)
system.caches.L1Cache_Controller.Inv     |       10799     16.10%     16.10% |        8640     12.88%     28.98% |        4842      7.22%     36.19% |        9787     14.59%     50.78% |        8532     12.72%     63.50% |        9026     13.45%     76.95% |        5659      8.44%     85.39% |        9802     14.61%    100.00% (Unspecified)
system.caches.L1Cache_Controller.Inv::total        67087                       (Unspecified)
system.caches.L1Cache_Controller.L1_Replacement |      156262     11.41%     11.41% |      124524      9.09%     20.51% |      203463     14.86%     35.37% |      174756     12.76%     48.13% |      162536     11.87%     60.00% |      165729     12.10%     72.11% |      208167     15.20%     87.31% |      173725     12.69%    100.00% (Unspecified)
system.caches.L1Cache_Controller.L1_Replacement::total      1369162                       (Unspecified)
system.caches.L1Cache_Controller.Fwd_GETX |          51     10.99%     10.99% |          29      6.25%     17.24% |          76     16.38%     33.62% |          53     11.42%     45.04% |          15      3.23%     48.28% |          48     10.34%     58.62% |         119     25.65%     84.27% |          73     15.73%    100.00% (Unspecified)
system.caches.L1Cache_Controller.Fwd_GETX::total          464                       (Unspecified)
system.caches.L1Cache_Controller.Fwd_GETS |         502     36.67%     36.67% |         252     18.41%     55.08% |         134      9.79%     64.86% |          67      4.89%     69.76% |         109      7.96%     77.72% |         137     10.01%     87.73% |         102      7.45%     95.18% |          66      4.82%    100.00% (Unspecified)
system.caches.L1Cache_Controller.Fwd_GETS::total         1369                       (Unspecified)
system.caches.L1Cache_Controller.Data    |          34     77.27%     77.27% |           0      0.00%     77.27% |           4      9.09%     86.36% |           2      4.55%     90.91% |           1      2.27%     93.18% |           0      0.00%     93.18% |           3      6.82%    100.00% |           0      0.00%    100.00% (Unspecified)
system.caches.L1Cache_Controller.Data::total           44                       (Unspecified)
system.caches.L1Cache_Controller.Data_Exclusive |        3304     12.30%     12.30% |        2327      8.66%     20.97% |        4138     15.41%     36.37% |        3259     12.13%     48.51% |        3236     12.05%     60.56% |        3185     11.86%     72.42% |        4226     15.74%     88.15% |        3182     11.85%    100.00% (Unspecified)
system.caches.L1Cache_Controller.Data_Exclusive::total        26857                       (Unspecified)
system.caches.L1Cache_Controller.DataS_fromL1 |         243     17.75%     17.75% |         358     26.15%     43.90% |         162     11.83%     55.73% |         138     10.08%     65.81% |         169     12.34%     78.16% |         131      9.57%     87.73% |         102      7.45%     95.18% |          66      4.82%    100.00% (Unspecified)
system.caches.L1Cache_Controller.DataS_fromL1::total         1369                       (Unspecified)
system.caches.L1Cache_Controller.Data_all_Acks |      155326     11.42%     11.42% |      124290      9.14%     20.57% |      201383     14.81%     35.38% |      173661     12.77%     48.15% |      161366     11.87%     60.02% |      164687     12.11%     72.13% |      206074     15.16%     87.29% |      172777     12.71%    100.00% (Unspecified)
system.caches.L1Cache_Controller.Data_all_Acks::total      1359564                       (Unspecified)
system.caches.L1Cache_Controller.Ack     |         939     74.05%     74.05% |          27      2.13%     76.18% |          56      4.42%     80.60% |          48      3.79%     84.38% |          48      3.79%     88.17% |          33      2.60%     90.77% |          73      5.76%     96.53% |          44      3.47%    100.00% (Unspecified)
system.caches.L1Cache_Controller.Ack::total         1268                       (Unspecified)
system.caches.L1Cache_Controller.Ack_all |         235     48.45%     48.45% |          17      3.51%     51.96% |          48      9.90%     61.86% |          41      8.45%     70.31% |          30      6.19%     76.49% |          27      5.57%     82.06% |          46      9.48%     91.55% |          41      8.45%    100.00% (Unspecified)
system.caches.L1Cache_Controller.Ack_all::total          485                       (Unspecified)
system.caches.L1Cache_Controller.WB_Ack  |      132866     10.57%     10.57% |      111085      8.83%     19.40% |      193068     15.35%     34.75% |      161006     12.80%     47.56% |      148603     11.82%     59.38% |      151872     12.08%     71.45% |      198731     15.80%     87.26% |      160240     12.74%    100.00% (Unspecified)
system.caches.L1Cache_Controller.WB_Ack::total      1257471                       (Unspecified)
system.caches.L1Cache_Controller.NP.Load |        3485     10.43%     10.43% |        2616      7.83%     18.25% |        5214     15.60%     33.85% |        4324     12.94%     46.78% |        4134     12.37%     59.15% |        4030     12.06%     71.21% |        5424     16.23%     87.43% |        4201     12.57%    100.00% (Unspecified)
system.caches.L1Cache_Controller.NP.Load::total        33428                       (Unspecified)
system.caches.L1Cache_Controller.NP.Ifetch |       17908     36.61%     36.61% |        4265      8.72%     45.33% |        4496      9.19%     54.52% |        4488      9.17%     63.69% |        4590      9.38%     73.08% |        4487      9.17%     82.25% |        4189      8.56%     90.81% |        4495      9.19%    100.00% (Unspecified)
system.caches.L1Cache_Controller.NP.Ifetch::total        48918                       (Unspecified)
system.caches.L1Cache_Controller.NP.Store |      134990     10.49%     10.49% |      117667      9.14%     19.63% |      193780     15.06%     34.68% |      165971     12.89%     47.58% |      153840     11.95%     59.53% |      157239     12.22%     71.75% |      198581     15.43%     87.18% |      165057     12.82%    100.00% (Unspecified)
system.caches.L1Cache_Controller.NP.Store::total      1287125                       (Unspecified)
system.caches.L1Cache_Controller.NP.Inv  |        2796     19.70%     19.70% |        1351      9.52%     29.22% |        1720     12.12%     41.35% |        1664     11.73%     53.07% |        1713     12.07%     65.14% |        1707     12.03%     77.17% |        1558     10.98%     88.15% |        1681     11.85%    100.00% (Unspecified)
system.caches.L1Cache_Controller.NP.Inv::total        14190                       (Unspecified)
system.caches.L1Cache_Controller.I.Load  |        1031     16.89%     16.89% |         967     15.84%     32.72% |         647     10.60%     43.32% |         697     11.42%     54.73% |         712     11.66%     66.39% |         726     11.89%     78.28% |         626     10.25%     88.54% |         700     11.46%    100.00% (Unspecified)
system.caches.L1Cache_Controller.I.Load::total         6106                       (Unspecified)
system.caches.L1Cache_Controller.I.Ifetch |        1023     10.30%     10.30% |        1112     11.20%     21.50% |        1331     13.40%     34.90% |        1308     13.17%     48.08% |        1237     12.46%     60.53% |        1259     12.68%     73.21% |        1355     13.65%     86.86% |        1305     13.14%    100.00% (Unspecified)
system.caches.L1Cache_Controller.I.Ifetch::total         9930                       (Unspecified)
system.caches.L1Cache_Controller.I.Store |         470     20.19%     20.19% |         348     14.95%     35.14% |         219      9.41%     44.54% |         272     11.68%     56.23% |         259     11.13%     67.35% |         262     11.25%     78.61% |         230      9.88%     88.49% |         268     11.51%    100.00% (Unspecified)
system.caches.L1Cache_Controller.I.Store::total         2328                       (Unspecified)
system.caches.L1Cache_Controller.I.L1_Replacement |        5389      9.44%      9.44% |        8828     15.47%     24.92% |        4956      8.69%     33.60% |        8374     14.68%     48.28% |        8545     14.97%     63.25% |        8600     15.07%     78.32% |        4216      7.39%     85.71% |        8154     14.29%    100.00% (Unspecified)
system.caches.L1Cache_Controller.I.L1_Replacement::total        57062                       (Unspecified)
system.caches.L1Cache_Controller.S.Load  |    28623781     12.27%     12.27% |    29219776     12.53%     24.80% |    29220626     12.53%     37.33% |    29432345     12.62%     49.94% |    28826142     12.36%     62.30% |    29375375     12.59%     74.89% |    29145441     12.49%     87.39% |    29415007     12.61%    100.00% (Unspecified)
system.caches.L1Cache_Controller.S.Load::total    233258493                       (Unspecified)
system.caches.L1Cache_Controller.S.Ifetch |    17793040     12.34%     12.34% |    18088641     12.55%     24.89% |    18118694     12.57%     37.45% |    18036376     12.51%     49.96% |    17997429     12.48%     62.44% |    18001013     12.48%     74.93% |    18122201     12.57%     87.50% |    18025573     12.50%    100.00% (Unspecified)
system.caches.L1Cache_Controller.S.Ifetch::total    144182967                       (Unspecified)
system.caches.L1Cache_Controller.S.Store |         201     45.58%     45.58% |          17      3.85%     49.43% |          44      9.98%     59.41% |          39      8.84%     68.25% |          29      6.58%     74.83% |          27      6.12%     80.95% |          43      9.75%     90.70% |          41      9.30%    100.00% (Unspecified)
system.caches.L1Cache_Controller.S.Store::total          441                       (Unspecified)
system.caches.L1Cache_Controller.S.Inv   |        2300     13.45%     13.45% |        2177     12.73%     26.19% |        2112     12.35%     38.54% |        2127     12.44%     50.98% |        2044     11.96%     62.94% |        2082     12.18%     75.12% |        2123     12.42%     87.54% |        2131     12.46%    100.00% (Unspecified)
system.caches.L1Cache_Controller.S.Inv::total        17096                       (Unspecified)
system.caches.L1Cache_Controller.S.L1_Replacement |       18006     32.96%     32.96% |        4610      8.44%     41.40% |        5439      9.96%     51.36% |        5375      9.84%     61.20% |        5388      9.86%     71.06% |        5257      9.62%     80.69% |        5220      9.56%     90.24% |        5331      9.76%    100.00% (Unspecified)
system.caches.L1Cache_Controller.S.L1_Replacement::total        54626                       (Unspecified)
system.caches.L1Cache_Controller.E.Load  |      465601     24.86%     24.86% |      495015     26.43%     51.29% |      251455     13.43%     64.72% |        9022      0.48%     65.20% |      594833     31.76%     96.96% |       37519      2.00%     98.96% |       10664      0.57%     99.53% |        8779      0.47%    100.00% (Unspecified)
system.caches.L1Cache_Controller.E.Load::total      1872888                       (Unspecified)
system.caches.L1Cache_Controller.E.Store |        1122     10.87%     10.87% |         763      7.39%     18.26% |        1700     16.47%     34.73% |        1258     12.19%     46.91% |        1271     12.31%     59.23% |        1256     12.17%     71.39% |        1717     16.63%     88.03% |        1236     11.97%    100.00% (Unspecified)
system.caches.L1Cache_Controller.E.Store::total        10323                       (Unspecified)
system.caches.L1Cache_Controller.E.Inv   |         565     21.61%     21.61% |         444     16.98%     38.59% |         262     10.02%     48.60% |         274     10.48%     59.08% |         285     10.90%     69.98% |         298     11.40%     81.38% |         234      8.95%     90.33% |         253      9.67%    100.00% (Unspecified)
system.caches.L1Cache_Controller.E.Inv::total         2615                       (Unspecified)
system.caches.L1Cache_Controller.E.L1_Replacement |        1356     10.49%     10.49% |         858      6.64%     17.12% |        2061     15.94%     33.07% |        1679     12.99%     46.05% |        1574     12.17%     58.23% |        1527     11.81%     70.04% |        2218     17.16%     87.19% |        1656     12.81%    100.00% (Unspecified)
system.caches.L1Cache_Controller.E.L1_Replacement::total        12929                       (Unspecified)
system.caches.L1Cache_Controller.E.Fwd_GETX |           0      0.00%      0.00% |          13     38.24%     38.24% |           3      8.82%     47.06% |           4     11.76%     58.82% |           4     11.76%     70.59% |           3      8.82%     79.41% |           5     14.71%     94.12% |           2      5.88%    100.00% (Unspecified)
system.caches.L1Cache_Controller.E.Fwd_GETX::total           34                       (Unspecified)
system.caches.L1Cache_Controller.E.Fwd_GETS |         234     29.55%     29.55% |         232     29.29%     58.84% |          93     11.74%     70.58% |          21      2.65%     73.23% |          77      9.72%     82.95% |          93     11.74%     94.70% |          31      3.91%     98.61% |          11      1.39%    100.00% (Unspecified)
system.caches.L1Cache_Controller.E.Fwd_GETS::total          792                       (Unspecified)
system.caches.L1Cache_Controller.M.Load  |     6406856     12.45%     12.45% |     6488088     12.61%     25.06% |     6428113     12.49%     37.55% |     6422884     12.48%     50.04% |     6417075     12.47%     62.51% |     6415884     12.47%     74.97% |     6439613     12.51%     87.49% |     6437288     12.51%    100.00% (Unspecified)
system.caches.L1Cache_Controller.M.Load::total     51455801                       (Unspecified)
system.caches.L1Cache_Controller.M.Store |     5381533     12.18%     12.18% |     5243819     11.87%     24.04% |     5750330     13.01%     37.06% |     5548444     12.56%     49.61% |     5459096     12.35%     61.97% |     5482270     12.41%     74.37% |     5784350     13.09%     87.46% |     5539635     12.54%    100.00% (Unspecified)
system.caches.L1Cache_Controller.M.Store::total     44189477                       (Unspecified)
system.caches.L1Cache_Controller.M.Inv   |        5138     15.49%     15.49% |        4664     14.06%     29.56% |         744      2.24%     31.80% |        5716     17.24%     49.04% |        4487     13.53%     62.57% |        4937     14.89%     77.46% |        1742      5.25%     82.71% |        5733     17.29%    100.00% (Unspecified)
system.caches.L1Cache_Controller.M.Inv::total        33161                       (Unspecified)
system.caches.L1Cache_Controller.M.L1_Replacement |      131510     10.57%     10.57% |      110227      8.86%     19.42% |      191007     15.35%     34.77% |      159327     12.80%     47.57% |      147029     11.81%     59.39% |      150345     12.08%     71.47% |      196513     15.79%     87.26% |      158584     12.74%    100.00% (Unspecified)
system.caches.L1Cache_Controller.M.L1_Replacement::total      1244542                       (Unspecified)
system.caches.L1Cache_Controller.M.Fwd_GETX |          51     11.86%     11.86% |          16      3.72%     15.58% |          73     16.98%     32.56% |          49     11.40%     43.95% |          11      2.56%     46.51% |          45     10.47%     56.98% |         114     26.51%     83.49% |          71     16.51%    100.00% (Unspecified)
system.caches.L1Cache_Controller.M.Fwd_GETX::total          430                       (Unspecified)
system.caches.L1Cache_Controller.M.Fwd_GETS |         268     46.45%     46.45% |          20      3.47%     49.91% |          41      7.11%     57.02% |          46      7.97%     64.99% |          32      5.55%     70.54% |          44      7.63%     78.16% |          71     12.31%     90.47% |          55      9.53%    100.00% (Unspecified)
system.caches.L1Cache_Controller.M.Fwd_GETS::total          577                       (Unspecified)
system.caches.L1Cache_Controller.IS.Inv  |           0      0.00%      0.00% |           4     20.00%     20.00% |           4     20.00%     40.00% |           4     20.00%     60.00% |           2     10.00%     70.00% |           2     10.00%     80.00% |           2     10.00%     90.00% |           2     10.00%    100.00% (Unspecified)
system.caches.L1Cache_Controller.IS.Inv::total           20                       (Unspecified)
system.caches.L1Cache_Controller.IS.L1_Replacement |           1     33.33%     33.33% |           1     33.33%     66.67% |           0      0.00%     66.67% |           1     33.33%    100.00% |           0      0.00%    100.00% |           0      0.00%    100.00% |           0      0.00%    100.00% |           0      0.00%    100.00% (Unspecified)
system.caches.L1Cache_Controller.IS.L1_Replacement::total            3                       (Unspecified)
system.caches.L1Cache_Controller.IS.Data_Exclusive |        3304     12.30%     12.30% |        2327      8.66%     20.97% |        4138     15.41%     36.37% |        3259     12.13%     48.51% |        3236     12.05%     60.56% |        3185     11.86%     72.42% |        4226     15.74%     88.15% |        3182     11.85%    100.00% (Unspecified)
system.caches.L1Cache_Controller.IS.Data_Exclusive::total        26857                       (Unspecified)
system.caches.L1Cache_Controller.IS.DataS_fromL1 |         243     17.75%     17.75% |         358     26.15%     43.90% |         162     11.83%     55.73% |         138     10.08%     65.81% |         169     12.34%     78.16% |         131      9.57%     87.73% |         102      7.45%     95.18% |          66      4.82%    100.00% (Unspecified)
system.caches.L1Cache_Controller.IS.DataS_fromL1::total         1369                       (Unspecified)
system.caches.L1Cache_Controller.IS.Data_all_Acks |       19900     28.37%     28.37% |        6271      8.94%     37.31% |        7384     10.53%     47.84% |        7416     10.57%     58.42% |        7266     10.36%     68.78% |        7184     10.24%     79.02% |        7264     10.36%     89.38% |        7451     10.62%    100.00% (Unspecified)
system.caches.L1Cache_Controller.IS.Data_all_Acks::total        70136                       (Unspecified)
system.caches.L1Cache_Controller.IM.Data |          34     77.27%     77.27% |           0      0.00%     77.27% |           4      9.09%     86.36% |           2      4.55%     90.91% |           1      2.27%     93.18% |           0      0.00%     93.18% |           3      6.82%    100.00% |           0      0.00%    100.00% (Unspecified)
system.caches.L1Cache_Controller.IM.Data::total           44                       (Unspecified)
system.caches.L1Cache_Controller.IM.Data_all_Acks |      135426     10.50%     10.50% |      118015      9.15%     19.66% |      193995     15.05%     34.70% |      166241     12.89%     47.59% |      154098     11.95%     59.54% |      157501     12.21%     71.76% |      198808     15.42%     87.18% |      165324     12.82%    100.00% (Unspecified)
system.caches.L1Cache_Controller.IM.Data_all_Acks::total      1289408                       (Unspecified)
system.caches.L1Cache_Controller.SM.Ack  |         939     74.05%     74.05% |          27      2.13%     76.18% |          56      4.42%     80.60% |          48      3.79%     84.38% |          48      3.79%     88.17% |          33      2.60%     90.77% |          73      5.76%     96.53% |          44      3.47%    100.00% (Unspecified)
system.caches.L1Cache_Controller.SM.Ack::total         1268                       (Unspecified)
system.caches.L1Cache_Controller.SM.Ack_all |         235     48.45%     48.45% |          17      3.51%     51.96% |          48      9.90%     61.86% |          41      8.45%     70.31% |          30      6.19%     76.49% |          27      5.57%     82.06% |          46      9.48%     91.55% |          41      8.45%    100.00% (Unspecified)
system.caches.L1Cache_Controller.SM.Ack_all::total          485                       (Unspecified)
system.caches.L1Cache_Controller.IS_I.Data_all_Acks |           0      0.00%      0.00% |           4     20.00%     20.00% |           4     20.00%     40.00% |           4     20.00%     60.00% |           2     10.00%     70.00% |           2     10.00%     80.00% |           2     10.00%     90.00% |           2     10.00%    100.00% (Unspecified)
system.caches.L1Cache_Controller.IS_I.Data_all_Acks::total           20                       (Unspecified)
system.caches.L1Cache_Controller.M_I.Inv |           0      0.00%      0.00% |           0      0.00%      0.00% |           0      0.00%      0.00% |           2     40.00%     40.00% |           1     20.00%     60.00% |           0      0.00%     60.00% |           0      0.00%     60.00% |           2     40.00%    100.00% (Unspecified)
system.caches.L1Cache_Controller.M_I.Inv::total            5                       (Unspecified)
system.caches.L1Cache_Controller.M_I.WB_Ack |      132866     10.57%     10.57% |      111085      8.83%     19.40% |      193068     15.35%     34.75% |      161004     12.80%     47.56% |      148602     11.82%     59.38% |      151872     12.08%     71.45% |      198731     15.80%     87.26% |      160238     12.74%    100.00% (Unspecified)
system.caches.L1Cache_Controller.M_I.WB_Ack::total      1257466                       (Unspecified)
system.caches.L1Cache_Controller.SINK_WB_ACK.WB_Ack |           0      0.00%      0.00% |           0      0.00%      0.00% |           0      0.00%      0.00% |           2     40.00%     40.00% |           1     20.00%     60.00% |           0      0.00%     60.00% |           0      0.00%     60.00% |           2     40.00%    100.00% (Unspecified)
system.caches.L1Cache_Controller.SINK_WB_ACK.WB_Ack::total            5                       (Unspecified)
system.caches.Directory_Controller.Fetch |        5876      0.45%      0.45% |     1303155     99.55%    100.00% (Unspecified)
system.caches.Directory_Controller.Fetch::total      1309031                       (Unspecified)
system.caches.Directory_Controller.Data  |         386      0.03%      0.03% |     1290787     99.97%    100.00% (Unspecified)
system.caches.Directory_Controller.Data::total      1291173                       (Unspecified)
system.caches.Directory_Controller.Memory_Data |        5876      0.45%      0.45% |     1303154     99.55%    100.00% (Unspecified)
system.caches.Directory_Controller.Memory_Data::total      1309030                       (Unspecified)
system.caches.Directory_Controller.Memory_Ack |         386      0.03%      0.03% |     1290786     99.97%    100.00% (Unspecified)
system.caches.Directory_Controller.Memory_Ack::total      1291172                       (Unspecified)
system.caches.Directory_Controller.CleanReplacement |        5512     30.87%     30.87% |       12346     69.13%    100.00% (Unspecified)
system.caches.Directory_Controller.CleanReplacement::total        17858                       (Unspecified)
system.caches.Directory_Controller.I.Fetch |        5876      0.45%      0.45% |     1303155     99.55%    100.00% (Unspecified)
system.caches.Directory_Controller.I.Fetch::total      1309031                       (Unspecified)
system.caches.Directory_Controller.M.Data |         386      0.03%      0.03% |     1290787     99.97%    100.00% (Unspecified)
system.caches.Directory_Controller.M.Data::total      1291173                       (Unspecified)
system.caches.Directory_Controller.M.CleanReplacement |        5512     30.87%     30.87% |       12346     69.13%    100.00% (Unspecified)
system.caches.Directory_Controller.M.CleanReplacement::total        17858                       (Unspecified)
system.caches.Directory_Controller.IM.Memory_Data |        5876      0.45%      0.45% |     1303154     99.55%    100.00% (Unspecified)
system.caches.Directory_Controller.IM.Memory_Data::total      1309030                       (Unspecified)
system.caches.Directory_Controller.MI.Memory_Ack |         386      0.03%      0.03% |     1290786     99.97%    100.00% (Unspecified)
system.caches.Directory_Controller.MI.Memory_Ack::total      1291172                       (Unspecified)
system.caches.L2Cache_Controller.L1_GET_INSTR |        7181     12.20%     12.20% |        6914     11.74%     23.94% |        6883     11.69%     35.63% |        5809      9.87%     45.50% |        7388     12.55%     58.05% |        8472     14.39%     72.44% |        8698     14.77%     87.22% |        7525     12.78%    100.00% (Unspecified)
system.caches.L2Cache_Controller.L1_GET_INSTR::total        58870                       (Unspecified)
system.caches.L2Cache_Controller.L1_GETS |        6913     17.22%     17.22% |        5144     12.82%     30.04% |        4737     11.80%     41.84% |        4711     11.74%     53.57% |        4523     11.27%     64.84% |        4112     10.24%     75.09% |        4694     11.69%     86.78% |        5306     13.22%    100.00% (Unspecified)
system.caches.L2Cache_Controller.L1_GETS::total        40140                       (Unspecified)
system.caches.L2Cache_Controller.L1_GETX |      161449     12.52%     12.52% |      161253     12.50%     25.03% |      160637     12.46%     37.48% |      160960     12.48%     49.96% |      161058     12.49%     62.45% |      161735     12.54%     75.00% |      161287     12.51%     87.50% |      161137     12.50%    100.00% (Unspecified)
system.caches.L2Cache_Controller.L1_GETX::total      1289516                       (Unspecified)
system.caches.L2Cache_Controller.L1_UPGRADE |          76     16.24%     16.24% |          55     11.75%     27.99% |          37      7.91%     35.90% |          21      4.49%     40.38% |          43      9.19%     49.57% |          33      7.05%     56.62% |         160     34.19%     90.81% |          43      9.19%    100.00% (Unspecified)
system.caches.L2Cache_Controller.L1_UPGRADE::total          468                       (Unspecified)
system.caches.L2Cache_Controller.L1_PUTX |      157618     12.53%     12.53% |      157317     12.51%     25.05% |      156906     12.48%     37.52% |      156924     12.48%     50.00% |      157124     12.50%     62.50% |      157178     12.50%     75.00% |      157037     12.49%     87.49% |      157362     12.51%    100.00% (Unspecified)
system.caches.L2Cache_Controller.L1_PUTX::total      1257466                       (Unspecified)
system.caches.L2Cache_Controller.L1_PUTX_old |           0      0.00%      0.00% |           4     40.00%     40.00% |           0      0.00%     40.00% |           0      0.00%     40.00% |           0      0.00%     40.00% |           4     40.00%     80.00% |           2     20.00%    100.00% |           0      0.00%    100.00% (Unspecified)
system.caches.L2Cache_Controller.L1_PUTX_old::total           10                       (Unspecified)
system.caches.L2Cache_Controller.L2_Replacement |      157608     12.52%     12.52% |      157292     12.49%     25.01% |      157177     12.48%     37.49% |      157192     12.48%     49.98% |      157315     12.49%     62.47% |      157604     12.52%     74.99% |      157401     12.50%     87.49% |      157514     12.51%    100.00% (Unspecified)
system.caches.L2Cache_Controller.L2_Replacement::total      1259103                       (Unspecified)
system.caches.L2Cache_Controller.L2_Replacement_clean |        6394     12.81%     12.81% |        6408     12.83%     25.64% |        5782     11.58%     37.22% |        6225     12.47%     49.69% |        6093     12.20%     61.89% |        6397     12.81%     74.71% |        6279     12.58%     87.28% |        6350     12.72%    100.00% (Unspecified)
system.caches.L2Cache_Controller.L2_Replacement_clean::total        49928                       (Unspecified)
system.caches.L2Cache_Controller.Mem_Data |      164001     12.53%     12.53% |      163700     12.51%     25.03% |      162959     12.45%     37.48% |      163417     12.48%     49.97% |      163408     12.48%     62.45% |      164001     12.53%     74.98% |      163680     12.50%     87.48% |      163864     12.52%    100.00% (Unspecified)
system.caches.L2Cache_Controller.Mem_Data::total      1309030                       (Unspecified)
system.caches.L2Cache_Controller.Mem_Ack |      164001     12.53%     12.53% |      163700     12.51%     25.03% |      162959     12.45%     37.48% |      163417     12.48%     49.97% |      163408     12.48%     62.45% |      164001     12.53%     74.98% |      163680     12.50%     87.48% |      163864     12.52%    100.00% (Unspecified)
system.caches.L2Cache_Controller.Mem_Ack::total      1309030                       (Unspecified)
system.caches.L2Cache_Controller.WB_Data |        4293     12.72%     12.72% |        4157     12.32%     25.04% |        3769     11.17%     36.21% |        4252     12.60%     48.81% |        4060     12.03%     60.85% |        4486     13.29%     74.14% |        4353     12.90%     87.04% |        4373     12.96%    100.00% (Unspecified)
system.caches.L2Cache_Controller.WB_Data::total        33743                       (Unspecified)
system.caches.L2Cache_Controller.WB_Data_clean |         149     18.81%     18.81% |          90     11.36%     30.18% |          82     10.35%     40.53% |          92     11.62%     52.15% |          93     11.74%     63.89% |          74      9.34%     73.23% |          94     11.87%     85.10% |         118     14.90%    100.00% (Unspecified)
system.caches.L2Cache_Controller.WB_Data_clean::total          792                       (Unspecified)
system.caches.L2Cache_Controller.Ack     |        3511     14.70%     14.70% |        3159     13.23%     27.93% |        2829     11.85%     39.78% |        2519     10.55%     50.32% |        2792     11.69%     62.02% |        3063     12.83%     74.84% |        2997     12.55%     87.39% |        3011     12.61%    100.00% (Unspecified)
system.caches.L2Cache_Controller.Ack::total        23881                       (Unspecified)
system.caches.L2Cache_Controller.Ack_all |        1202     13.77%     13.77% |        1154     13.22%     26.99% |         996     11.41%     38.41% |         975     11.17%     49.58% |        1068     12.24%     61.81% |        1116     12.79%     74.60% |        1173     13.44%     88.04% |        1044     11.96%    100.00% (Unspecified)
system.caches.L2Cache_Controller.Ack_all::total         8728                       (Unspecified)
system.caches.L2Cache_Controller.Unblock |         274     20.01%     20.01% |         144     10.52%     30.53% |         123      8.98%     39.52% |         125      9.13%     48.65% |         162     11.83%     60.48% |         111      8.11%     68.59% |         252     18.41%     87.00% |         178     13.00%    100.00% (Unspecified)
system.caches.L2Cache_Controller.Unblock::total         1369                       (Unspecified)
system.caches.L2Cache_Controller.Exclusive_Unblock |      165120     12.54%     12.54% |      164738     12.51%     25.05% |      163770     12.44%     37.49% |      164324     12.48%     49.97% |      164415     12.49%     62.45% |      164888     12.52%     74.98% |      164693     12.51%     87.48% |      164802     12.52%    100.00% (Unspecified)
system.caches.L2Cache_Controller.Exclusive_Unblock::total      1316750                       (Unspecified)
system.caches.L2Cache_Controller.NP.L1_GET_INSTR |         666     13.14%     13.14% |         672     13.26%     26.40% |         617     12.17%     38.57% |         557     10.99%     49.56% |         605     11.94%     61.49% |         655     12.92%     74.41% |         642     12.67%     87.08% |         655     12.92%    100.00% (Unspecified)
system.caches.L2Cache_Controller.NP.L1_GET_INSTR::total         5069                       (Unspecified)
system.caches.L2Cache_Controller.NP.L1_GETS |        3034     13.15%     13.15% |        2874     12.46%     25.61% |        2691     11.67%     37.28% |        2959     12.83%     50.11% |        2776     12.03%     62.14% |        2753     11.93%     74.08% |        2861     12.40%     86.48% |        3119     13.52%    100.00% (Unspecified)
system.caches.L2Cache_Controller.NP.L1_GETS::total        23067                       (Unspecified)
system.caches.L2Cache_Controller.NP.L1_GETX |      160302     12.51%     12.51% |      160154     12.50%     25.02% |      159651     12.46%     37.48% |      159901     12.48%     49.97% |      160027     12.49%     62.46% |      160593     12.54%     75.00% |      160177     12.51%     87.50% |      160090     12.50%    100.00% (Unspecified)
system.caches.L2Cache_Controller.NP.L1_GETX::total      1280895                       (Unspecified)
system.caches.L2Cache_Controller.NP.L1_PUTX_old |           0      0.00%      0.00% |           2     40.00%     40.00% |           0      0.00%     40.00% |           0      0.00%     40.00% |           0      0.00%     40.00% |           2     40.00%     80.00% |           1     20.00%    100.00% |           0      0.00%    100.00% (Unspecified)
system.caches.L2Cache_Controller.NP.L1_PUTX_old::total            5                       (Unspecified)
system.caches.L2Cache_Controller.SS.L1_GET_INSTR |        6285     12.09%     12.09% |        5942     11.43%     23.53% |        6087     11.71%     35.24% |        5091      9.80%     45.04% |        6576     12.65%     57.69% |        7585     14.60%     72.29% |        7823     15.05%     87.34% |        6578     12.66%    100.00% (Unspecified)
system.caches.L2Cache_Controller.SS.L1_GET_INSTR::total        51967                       (Unspecified)
system.caches.L2Cache_Controller.SS.L1_GETS |        2688     27.05%     27.05% |        1334     13.42%     40.47% |        1274     12.82%     53.30% |         953      9.59%     62.89% |         887      8.93%     71.81% |         713      7.18%     78.99% |         881      8.87%     87.85% |        1207     12.15%    100.00% (Unspecified)
system.caches.L2Cache_Controller.SS.L1_GETS::total         9937                       (Unspecified)
system.caches.L2Cache_Controller.SS.L1_GETX |          28     63.64%     63.64% |           0      0.00%     63.64% |           0      0.00%     63.64% |           5     11.36%     75.00% |           6     13.64%     88.64% |           0      0.00%     88.64% |           5     11.36%    100.00% |           0      0.00%    100.00% (Unspecified)
system.caches.L2Cache_Controller.SS.L1_GETX::total           44                       (Unspecified)
system.caches.L2Cache_Controller.SS.L1_UPGRADE |          76     17.23%     17.23% |          55     12.47%     29.71% |          37      8.39%     38.10% |          21      4.76%     42.86% |          43      9.75%     52.61% |          33      7.48%     60.09% |         133     30.16%     90.25% |          43      9.75%    100.00% (Unspecified)
system.caches.L2Cache_Controller.SS.L1_UPGRADE::total          441                       (Unspecified)
system.caches.L2Cache_Controller.SS.L2_Replacement |          38     22.35%     22.35% |           9      5.29%     27.65% |           9      5.29%     32.94% |          11      6.47%     39.41% |          27     15.88%     55.29% |           6      3.53%     58.82% |          39     22.94%     81.76% |          31     18.24%    100.00% (Unspecified)
system.caches.L2Cache_Controller.SS.L2_Replacement::total          170                       (Unspecified)
system.caches.L2Cache_Controller.SS.L2_Replacement_clean |         834     14.03%     14.03% |         779     13.11%     27.14% |         727     12.23%     39.37% |         669     11.26%     50.63% |         703     11.83%     62.46% |         739     12.43%     74.89% |         726     12.22%     87.11% |         766     12.89%    100.00% (Unspecified)
system.caches.L2Cache_Controller.SS.L2_Replacement_clean::total         5943                       (Unspecified)
system.caches.L2Cache_Controller.M.L1_GET_INSTR |           3      5.77%      5.77% |           5      9.62%     15.38% |           9     17.31%     32.69% |           6     11.54%     44.23% |          10     19.23%     63.46% |           7     13.46%     76.92% |           7     13.46%     90.38% |           5      9.62%    100.00% (Unspecified)
system.caches.L2Cache_Controller.M.L1_GET_INSTR::total           52                       (Unspecified)
system.caches.L2Cache_Controller.M.L1_GETS |         625     15.42%     15.42% |         604     14.90%     30.32% |         453     11.17%     41.49% |         422     10.41%     51.90% |         565     13.94%     65.84% |         393      9.69%     75.53% |         436     10.75%     86.29% |         556     13.71%    100.00% (Unspecified)
system.caches.L2Cache_Controller.M.L1_GETS::total         4054                       (Unspecified)
system.caches.L2Cache_Controller.M.L1_GETX |        1037     12.88%     12.88% |        1000     12.42%     25.30% |         941     11.69%     36.99% |         976     12.12%     49.12% |         958     11.90%     61.02% |        1087     13.50%     74.52% |        1042     12.94%     87.47% |        1009     12.53%    100.00% (Unspecified)
system.caches.L2Cache_Controller.M.L1_GETX::total         8050                       (Unspecified)
system.caches.L2Cache_Controller.M.L2_Replacement |      157389     12.51%     12.51% |      157145     12.49%     25.01% |      157071     12.49%     37.49% |      157072     12.49%     49.98% |      157168     12.50%     62.48% |      157435     12.52%     74.99% |      157230     12.50%     87.49% |      157316     12.51%    100.00% (Unspecified)
system.caches.L2Cache_Controller.M.L2_Replacement::total      1257826                       (Unspecified)
system.caches.L2Cache_Controller.M.L2_Replacement_clean |        1243     13.35%     13.35% |        1298     13.94%     27.29% |        1164     12.50%     39.79% |        1151     12.36%     52.15% |        1181     12.68%     64.84% |        1001     10.75%     75.59% |        1082     11.62%     87.21% |        1191     12.79%    100.00% (Unspecified)
system.caches.L2Cache_Controller.M.L2_Replacement_clean::total         9311                       (Unspecified)
system.caches.L2Cache_Controller.MT.L1_GETS |         274     20.01%     20.01% |         144     10.52%     30.53% |         123      8.98%     39.52% |         125      9.13%     48.65% |         162     11.83%     60.48% |         111      8.11%     68.59% |         252     18.41%     87.00% |         178     13.00%    100.00% (Unspecified)
system.caches.L2Cache_Controller.MT.L1_GETS::total         1369                       (Unspecified)
system.caches.L2Cache_Controller.MT.L1_GETX |          79     17.03%     17.03% |          92     19.83%     36.85% |          39      8.41%     45.26% |          73     15.73%     60.99% |          61     13.15%     74.14% |          47     10.13%     84.27% |          51     10.99%     95.26% |          22      4.74%    100.00% (Unspecified)
system.caches.L2Cache_Controller.MT.L1_GETX::total          464                       (Unspecified)
system.caches.L2Cache_Controller.MT.L1_PUTX |      157618     12.53%     12.53% |      157317     12.51%     25.05% |      156906     12.48%     37.52% |      156924     12.48%     50.00% |      157124     12.50%     62.50% |      157178     12.50%     75.00% |      157037     12.49%     87.49% |      157362     12.51%    100.00% (Unspecified)
system.caches.L2Cache_Controller.MT.L1_PUTX::total      1257466                       (Unspecified)
system.caches.L2Cache_Controller.MT.L2_Replacement |         181     16.35%     16.35% |         138     12.47%     28.82% |          97      8.76%     37.58% |         109      9.85%     47.43% |         120     10.84%     58.27% |         163     14.72%     72.99% |         132     11.92%     84.91% |         167     15.09%    100.00% (Unspecified)
system.caches.L2Cache_Controller.MT.L2_Replacement::total         1107                       (Unspecified)
system.caches.L2Cache_Controller.MT.L2_Replacement_clean |        4317     12.45%     12.45% |        4331     12.49%     24.94% |        3891     11.22%     36.16% |        4405     12.70%     48.87% |        4209     12.14%     61.01% |        4657     13.43%     74.44% |        4471     12.89%     87.33% |        4393     12.67%    100.00% (Unspecified)
system.caches.L2Cache_Controller.MT.L2_Replacement_clean::total        34674                       (Unspecified)
system.caches.L2Cache_Controller.M_I.L1_GET_INSTR |           0      0.00%      0.00% |           3     13.64%     13.64% |           0      0.00%     13.64% |           0      0.00%     13.64% |           0      0.00%     13.64% |           0      0.00%     13.64% |           5     22.73%     36.36% |          14     63.64%    100.00% (Unspecified)
system.caches.L2Cache_Controller.M_I.L1_GET_INSTR::total           22                       (Unspecified)
system.caches.L2Cache_Controller.M_I.L1_GETS |          28      8.28%      8.28% |          33      9.76%     18.05% |          36     10.65%     28.70% |          70     20.71%     49.41% |          40     11.83%     61.24% |          37     10.95%     72.19% |          47     13.91%     86.09% |          47     13.91%    100.00% (Unspecified)
system.caches.L2Cache_Controller.M_I.L1_GETS::total          338                       (Unspecified)
system.caches.L2Cache_Controller.M_I.L1_GETX |           2      3.33%      3.33% |           7     11.67%     15.00% |           6     10.00%     25.00% |           5      8.33%     33.33% |           5      8.33%     41.67% |           8     13.33%     55.00% |          11     18.33%     73.33% |          16     26.67%    100.00% (Unspecified)
system.caches.L2Cache_Controller.M_I.L1_GETX::total           60                       (Unspecified)
system.caches.L2Cache_Controller.M_I.Mem_Ack |      164001     12.53%     12.53% |      163700     12.51%     25.03% |      162959     12.45%     37.48% |      163417     12.48%     49.97% |      163408     12.48%     62.45% |      164001     12.53%     74.98% |      163680     12.50%     87.48% |      163864     12.52%    100.00% (Unspecified)
system.caches.L2Cache_Controller.M_I.Mem_Ack::total      1309030                       (Unspecified)
system.caches.L2Cache_Controller.MT_I.WB_Data |         181     16.51%     16.51% |         138     12.59%     29.11% |          95      8.67%     37.77% |         109      9.95%     47.72% |         116     10.58%     58.30% |         162     14.78%     73.08% |         130     11.86%     84.95% |         165     15.05%    100.00% (Unspecified)
system.caches.L2Cache_Controller.MT_I.WB_Data::total         1096                       (Unspecified)
system.caches.L2Cache_Controller.MT_I.Ack_all |           0      0.00%      0.00% |           0      0.00%      0.00% |           2     18.18%     18.18% |           0      0.00%     18.18% |           4     36.36%     54.55% |           1      9.09%     63.64% |           2     18.18%     81.82% |           2     18.18%    100.00% (Unspecified)
system.caches.L2Cache_Controller.MT_I.Ack_all::total           11                       (Unspecified)
system.caches.L2Cache_Controller.MCT_I.L1_PUTX_old |           0      0.00%      0.00% |           2     40.00%     40.00% |           0      0.00%     40.00% |           0      0.00%     40.00% |           0      0.00%     40.00% |           2     40.00%     80.00% |           1     20.00%    100.00% |           0      0.00%    100.00% (Unspecified)
system.caches.L2Cache_Controller.MCT_I.L1_PUTX_old::total            5                       (Unspecified)
system.caches.L2Cache_Controller.MCT_I.WB_Data |        3987     12.43%     12.43% |        3965     12.36%     24.80% |        3633     11.33%     36.12% |        4110     12.82%     48.94% |        3875     12.08%     61.02% |        4287     13.37%     74.39% |        4065     12.68%     87.07% |        4148     12.93%    100.00% (Unspecified)
system.caches.L2Cache_Controller.MCT_I.WB_Data::total        32070                       (Unspecified)
system.caches.L2Cache_Controller.MCT_I.Ack_all |         330     12.67%     12.67% |         366     14.06%     26.73% |         258      9.91%     36.64% |         295     11.33%     47.96% |         334     12.83%     60.79% |         370     14.21%     75.00% |         406     15.59%     90.59% |         245      9.41%    100.00% (Unspecified)
system.caches.L2Cache_Controller.MCT_I.Ack_all::total         2604                       (Unspecified)
system.caches.L2Cache_Controller.I_I.L1_GETS |           0      0.00%      0.00% |           0      0.00%      0.00% |           1     20.00%     20.00% |           2     40.00%     60.00% |           0      0.00%     60.00% |           0      0.00%     60.00% |           0      0.00%     60.00% |           2     40.00%    100.00% (Unspecified)
system.caches.L2Cache_Controller.I_I.L1_GETS::total            5                       (Unspecified)
system.caches.L2Cache_Controller.I_I.Ack |        3385     14.41%     14.41% |        3110     13.24%     27.66% |        2814     11.98%     39.64% |        2490     10.60%     50.24% |        2759     11.75%     61.99% |        3051     12.99%     74.98% |        2914     12.41%     87.39% |        2961     12.61%    100.00% (Unspecified)
system.caches.L2Cache_Controller.I_I.Ack::total        23484                       (Unspecified)
system.caches.L2Cache_Controller.I_I.Ack_all |         834     14.03%     14.03% |         779     13.11%     27.14% |         727     12.23%     39.37% |         669     11.26%     50.63% |         703     11.83%     62.46% |         739     12.43%     74.89% |         726     12.22%     87.11% |         766     12.89%    100.00% (Unspecified)
system.caches.L2Cache_Controller.I_I.Ack_all::total         5943                       (Unspecified)
system.caches.L2Cache_Controller.S_I.Ack |         126     31.74%     31.74% |          49     12.34%     44.08% |          15      3.78%     47.86% |          29      7.30%     55.16% |          33      8.31%     63.48% |          12      3.02%     66.50% |          83     20.91%     87.41% |          50     12.59%    100.00% (Unspecified)
system.caches.L2Cache_Controller.S_I.Ack::total          397                       (Unspecified)
system.caches.L2Cache_Controller.S_I.Ack_all |          38     22.35%     22.35% |           9      5.29%     27.65% |           9      5.29%     32.94% |          11      6.47%     39.41% |          27     15.88%     55.29% |           6      3.53%     58.82% |          39     22.94%     81.76% |          31     18.24%    100.00% (Unspecified)
system.caches.L2Cache_Controller.S_I.Ack_all::total          170                       (Unspecified)
system.caches.L2Cache_Controller.ISS.L1_GETS |          60     22.73%     22.73% |          41     15.53%     38.26% |          42     15.91%     54.17% |          33     12.50%     66.67% |          21      7.95%     74.62% |          18      6.82%     81.44% |          12      4.55%     85.98% |          37     14.02%    100.00% (Unspecified)
system.caches.L2Cache_Controller.ISS.L1_GETS::total          264                       (Unspecified)
system.caches.L2Cache_Controller.ISS.L1_GETX |           0      0.00%      0.00% |           0      0.00%      0.00% |           0      0.00%      0.00% |           0      0.00%      0.00% |           1    100.00%    100.00% |           0      0.00%    100.00% |           0      0.00%    100.00% |           0      0.00%    100.00% (Unspecified)
system.caches.L2Cache_Controller.ISS.L1_GETX::total            1                       (Unspecified)
system.caches.L2Cache_Controller.ISS.Mem_Data |        2974     13.04%     13.04% |        2833     12.42%     25.47% |        2649     11.62%     37.08% |        2926     12.83%     49.91% |        2755     12.08%     62.00% |        2735     11.99%     73.99% |        2849     12.49%     86.48% |        3082     13.52%    100.00% (Unspecified)
system.caches.L2Cache_Controller.ISS.Mem_Data::total        22803                       (Unspecified)
system.caches.L2Cache_Controller.IS.L1_GET_INSTR |         227     12.90%     12.90% |         292     16.59%     29.49% |         170      9.66%     39.15% |         155      8.81%     47.95% |         197     11.19%     59.15% |         225     12.78%     71.93% |         221     12.56%     84.49% |         273     15.51%    100.00% (Unspecified)
system.caches.L2Cache_Controller.IS.L1_GET_INSTR::total         1760                       (Unspecified)
system.caches.L2Cache_Controller.IS.L1_GETS |         171     20.28%     20.28% |         102     12.10%     32.38% |         114     13.52%     45.91% |         127     15.07%     60.97% |          66      7.83%     68.80% |          68      8.07%     76.87% |          53      6.29%     83.16% |         142     16.84%    100.00% (Unspecified)
system.caches.L2Cache_Controller.IS.L1_GETS::total          843                       (Unspecified)
system.caches.L2Cache_Controller.IS.L1_GETX |           0      0.00%      0.00% |           0      0.00%      0.00% |           0      0.00%      0.00% |           0      0.00%      0.00% |           0      0.00%      0.00% |           0      0.00%      0.00% |           1    100.00%    100.00% |           0      0.00%    100.00% (Unspecified)
system.caches.L2Cache_Controller.IS.L1_GETX::total            1                       (Unspecified)
system.caches.L2Cache_Controller.IS.Mem_Data |         726     13.61%     13.61% |         713     13.37%     26.98% |         659     12.36%     39.34% |         590     11.06%     50.40% |         626     11.74%     62.14% |         673     12.62%     74.76% |         654     12.26%     87.02% |         692     12.98%    100.00% (Unspecified)
system.caches.L2Cache_Controller.IS.Mem_Data::total         5333                       (Unspecified)
system.caches.L2Cache_Controller.IM.L1_GETX |           1    100.00%    100.00% |           0      0.00%    100.00% |           0      0.00%    100.00% |           0      0.00%    100.00% |           0      0.00%    100.00% |           0      0.00%    100.00% |           0      0.00%    100.00% |           0      0.00%    100.00% (Unspecified)
system.caches.L2Cache_Controller.IM.L1_GETX::total            1                       (Unspecified)
system.caches.L2Cache_Controller.IM.Mem_Data |      160301     12.51%     12.51% |      160154     12.50%     25.02% |      159651     12.46%     37.48% |      159901     12.48%     49.97% |      160027     12.49%     62.46% |      160593     12.54%     75.00% |      160177     12.51%     87.50% |      160090     12.50%    100.00% (Unspecified)
system.caches.L2Cache_Controller.IM.Mem_Data::total      1280894                       (Unspecified)
system.caches.L2Cache_Controller.SS_MB.L1_GETS |           0      0.00%      0.00% |           0      0.00%      0.00% |           0      0.00%      0.00% |           0      0.00%      0.00% |           0      0.00%      0.00% |           0      0.00%      0.00% |          99     93.40%     93.40% |           7      6.60%    100.00% (Unspecified)
system.caches.L2Cache_Controller.SS_MB.L1_GETS::total          106                       (Unspecified)
system.caches.L2Cache_Controller.SS_MB.Exclusive_Unblock |         104     21.44%     21.44% |          55     11.34%     32.78% |          37      7.63%     40.41% |          26      5.36%     45.77% |          49     10.10%     55.88% |          33      6.80%     62.68% |         138     28.45%     91.13% |          43      8.87%    100.00% (Unspecified)
system.caches.L2Cache_Controller.SS_MB.Exclusive_Unblock::total          485                       (Unspecified)
system.caches.L2Cache_Controller.MT_MB.L1_GETS |           8     33.33%     33.33% |           2      8.33%     41.67% |           0      0.00%     41.67% |           7     29.17%     70.83% |           1      4.17%     75.00% |           6     25.00%    100.00% |           0      0.00%    100.00% |           0      0.00%    100.00% (Unspecified)
system.caches.L2Cache_Controller.MT_MB.L1_GETS::total           24                       (Unspecified)
system.caches.L2Cache_Controller.MT_MB.Exclusive_Unblock |      165016     12.54%     12.54% |      164683     12.51%     25.05% |      163733     12.44%     37.49% |      164298     12.48%     49.97% |      164366     12.49%     62.46% |      164855     12.52%     74.98% |      164555     12.50%     87.48% |      164759     12.52%    100.00% (Unspecified)
system.caches.L2Cache_Controller.MT_MB.Exclusive_Unblock::total      1316265                       (Unspecified)
system.caches.L2Cache_Controller.MT_IIB.L1_GETS |          22     17.74%     17.74% |           8      6.45%     24.19% |           3      2.42%     26.61% |          13     10.48%     37.10% |           5      4.03%     41.13% |          12      9.68%     50.81% |          51     41.13%     91.94% |          10      8.06%    100.00% (Unspecified)
system.caches.L2Cache_Controller.MT_IIB.L1_GETS::total          124                       (Unspecified)
system.caches.L2Cache_Controller.MT_IIB.WB_Data |         125     22.01%     22.01% |          52      9.15%     31.16% |          37      6.51%     37.68% |          30      5.28%     42.96% |          69     12.15%     55.11% |          37      6.51%     61.62% |         158     27.82%     89.44% |          60     10.56%    100.00% (Unspecified)
system.caches.L2Cache_Controller.MT_IIB.WB_Data::total          568                       (Unspecified)
system.caches.L2Cache_Controller.MT_IIB.WB_Data_clean |         147     18.61%     18.61% |          90     11.39%     30.00% |          82     10.38%     40.38% |          92     11.65%     52.03% |          93     11.77%     63.80% |          74      9.37%     73.16% |          94     11.90%     85.06% |         118     14.94%    100.00% (Unspecified)
system.caches.L2Cache_Controller.MT_IIB.WB_Data_clean::total          790                       (Unspecified)
system.caches.L2Cache_Controller.MT_IIB.Unblock |           2     18.18%     18.18% |           2     18.18%     36.36% |           4     36.36%     72.73% |           3     27.27%    100.00% |           0      0.00%    100.00% |           0      0.00%    100.00% |           0      0.00%    100.00% |           0      0.00%    100.00% (Unspecified)
system.caches.L2Cache_Controller.MT_IIB.Unblock::total           11                       (Unspecified)
system.caches.L2Cache_Controller.MT_IB.WB_Data |           0      0.00%      0.00% |           2     22.22%     22.22% |           4     44.44%     66.67% |           3     33.33%    100.00% |           0      0.00%    100.00% |           0      0.00%    100.00% |           0      0.00%    100.00% |           0      0.00%    100.00% (Unspecified)
system.caches.L2Cache_Controller.MT_IB.WB_Data::total            9                       (Unspecified)
system.caches.L2Cache_Controller.MT_IB.WB_Data_clean |           2    100.00%    100.00% |           0      0.00%    100.00% |           0      0.00%    100.00% |           0      0.00%    100.00% |           0      0.00%    100.00% |           0      0.00%    100.00% |           0      0.00%    100.00% |           0      0.00%    100.00% (Unspecified)
system.caches.L2Cache_Controller.MT_IB.WB_Data_clean::total            2                       (Unspecified)
system.caches.L2Cache_Controller.MT_SB.L1_GETS |           3     33.33%     33.33% |           2     22.22%     55.56% |           0      0.00%     55.56% |           0      0.00%     55.56% |           0      0.00%     55.56% |           1     11.11%     66.67% |           2     22.22%     88.89% |           1     11.11%    100.00% (Unspecified)
system.caches.L2Cache_Controller.MT_SB.L1_GETS::total            9                       (Unspecified)
system.caches.L2Cache_Controller.MT_SB.L1_UPGRADE |           0      0.00%      0.00% |           0      0.00%      0.00% |           0      0.00%      0.00% |           0      0.00%      0.00% |           0      0.00%      0.00% |           0      0.00%      0.00% |          27    100.00%    100.00% |           0      0.00%    100.00% (Unspecified)
system.caches.L2Cache_Controller.MT_SB.L1_UPGRADE::total           27                       (Unspecified)
system.caches.L2Cache_Controller.MT_SB.Unblock |         272     20.03%     20.03% |         142     10.46%     30.49% |         119      8.76%     39.25% |         122      8.98%     48.23% |         162     11.93%     60.16% |         111      8.17%     68.34% |         252     18.56%     86.89% |         178     13.11%    100.00% (Unspecified)
system.caches.L2Cache_Controller.MT_SB.Unblock::total         1358                       (Unspecified)
system.caches.RequestType.LD.latency_hist_seqr::bucket_size          512                       (Unspecified)
system.caches.RequestType.LD.latency_hist_seqr::max_bucket         5119                       (Unspecified)
system.caches.RequestType.LD.latency_hist_seqr::samples    286626716                       (Unspecified)
system.caches.RequestType.LD.latency_hist_seqr::mean     1.050169                       (Unspecified)
system.caches.RequestType.LD.latency_hist_seqr::gmean     1.000678                       (Unspecified)
system.caches.RequestType.LD.latency_hist_seqr::stdev     6.306607                       (Unspecified)
system.caches.RequestType.LD.latency_hist_seqr |   286615456    100.00%    100.00% |        9835      0.00%    100.00% |         783      0.00%    100.00% |         316      0.00%    100.00% |         208      0.00%    100.00% |          95      0.00%    100.00% |          13      0.00%    100.00% |           9      0.00%    100.00% |           1      0.00%    100.00% |           0      0.00%    100.00% (Unspecified)
system.caches.RequestType.LD.latency_hist_seqr::total    286626716                       (Unspecified)
system.caches.RequestType.LD.hit_latency_hist_seqr::bucket_size            1                       (Unspecified)
system.caches.RequestType.LD.hit_latency_hist_seqr::max_bucket            9                       (Unspecified)
system.caches.RequestType.LD.hit_latency_hist_seqr::samples    286587182                       (Unspecified)
system.caches.RequestType.LD.hit_latency_hist_seqr::mean     1.000001                       (Unspecified)
system.caches.RequestType.LD.hit_latency_hist_seqr::gmean     1.000000                       (Unspecified)
system.caches.RequestType.LD.hit_latency_hist_seqr::stdev     0.000833                       (Unspecified)
system.caches.RequestType.LD.hit_latency_hist_seqr |           0      0.00%      0.00% |   286586983    100.00%    100.00% |         199      0.00%    100.00% |           0      0.00%    100.00% |           0      0.00%    100.00% |           0      0.00%    100.00% |           0      0.00%    100.00% |           0      0.00%    100.00% |           0      0.00%    100.00% |           0      0.00%    100.00% (Unspecified)
system.caches.RequestType.LD.hit_latency_hist_seqr::total    286587182                       (Unspecified)
system.caches.RequestType.LD.miss_latency_hist_seqr::bucket_size          512                       (Unspecified)
system.caches.RequestType.LD.miss_latency_hist_seqr::max_bucket         5119                       (Unspecified)
system.caches.RequestType.LD.miss_latency_hist_seqr::samples        39534                       (Unspecified)
system.caches.RequestType.LD.miss_latency_hist_seqr::mean   364.727121                       (Unspecified)
system.caches.RequestType.LD.miss_latency_hist_seqr::gmean   135.477409                       (Unspecified)
system.caches.RequestType.LD.miss_latency_hist_seqr::stdev   395.077712                       (Unspecified)
system.caches.RequestType.LD.miss_latency_hist_seqr |       28274     71.52%     71.52% |        9835     24.88%     96.40% |         783      1.98%     98.38% |         316      0.80%     99.18% |         208      0.53%     99.70% |          95      0.24%     99.94% |          13      0.03%     99.97% |           9      0.02%    100.00% |           1      0.00%    100.00% |           0      0.00%    100.00% (Unspecified)
system.caches.RequestType.LD.miss_latency_hist_seqr::total        39534                       (Unspecified)
system.caches.RequestType.ST.latency_hist_seqr::bucket_size          512                       (Unspecified)
system.caches.RequestType.ST.latency_hist_seqr::max_bucket         5119                       (Unspecified)
system.caches.RequestType.ST.latency_hist_seqr::samples     45453542                       (Unspecified)
system.caches.RequestType.ST.latency_hist_seqr::mean    14.326621                       (Unspecified)
system.caches.RequestType.ST.latency_hist_seqr::gmean     1.184907                       (Unspecified)
system.caches.RequestType.ST.latency_hist_seqr::stdev    94.929782                       (Unspecified)
system.caches.RequestType.ST.latency_hist_seqr |    45016993     99.04%     99.04% |      400056      0.88%     99.92% |       14962      0.03%     99.95% |       10131      0.02%     99.97% |        7889      0.02%     99.99% |        3366      0.01%    100.00% |         137      0.00%    100.00% |           8      0.00%    100.00% |           0      0.00%    100.00% |           0      0.00%    100.00% (Unspecified)
system.caches.RequestType.ST.latency_hist_seqr::total     45453542                       (Unspecified)
system.caches.RequestType.ST.hit_latency_hist_seqr::bucket_size          128                       (Unspecified)
system.caches.RequestType.ST.hit_latency_hist_seqr::max_bucket         1279                       (Unspecified)
system.caches.RequestType.ST.hit_latency_hist_seqr::samples     44167025                       (Unspecified)
system.caches.RequestType.ST.hit_latency_hist_seqr::mean     1.000813                       (Unspecified)
system.caches.RequestType.ST.hit_latency_hist_seqr::gmean     1.000383                       (Unspecified)
system.caches.RequestType.ST.hit_latency_hist_seqr::stdev     0.357974                       (Unspecified)
system.caches.RequestType.ST.hit_latency_hist_seqr |    44166998    100.00%    100.00% |           8      0.00%    100.00% |           6      0.00%    100.00% |           6      0.00%    100.00% |           4      0.00%    100.00% |           2      0.00%    100.00% |           0      0.00%    100.00% |           1      0.00%    100.00% |           0      0.00%    100.00% |           0      0.00%    100.00% (Unspecified)
system.caches.RequestType.ST.hit_latency_hist_seqr::total     44167025                       (Unspecified)
system.caches.RequestType.ST.miss_latency_hist_seqr::bucket_size          512                       (Unspecified)
system.caches.RequestType.ST.miss_latency_hist_seqr::max_bucket         5119                       (Unspecified)
system.caches.RequestType.ST.miss_latency_hist_seqr::samples      1286517                       (Unspecified)
system.caches.RequestType.ST.miss_latency_hist_seqr::mean   471.810872                       (Unspecified)
system.caches.RequestType.ST.miss_latency_hist_seqr::gmean   395.926122                       (Unspecified)
system.caches.RequestType.ST.miss_latency_hist_seqr::stdev   320.929646                       (Unspecified)
system.caches.RequestType.ST.miss_latency_hist_seqr |      849975     66.07%     66.07% |      400049     31.10%     97.16% |       14962      1.16%     98.33% |       10131      0.79%     99.11% |        7889      0.61%     99.73% |        3366      0.26%     99.99% |         137      0.01%    100.00% |           8      0.00%    100.00% |           0      0.00%    100.00% |           0      0.00%    100.00% (Unspecified)
system.caches.RequestType.ST.miss_latency_hist_seqr::total      1286517                       (Unspecified)
system.caches.RequestType.IFETCH.latency_hist_seqr::bucket_size          512                       (Unspecified)
system.caches.RequestType.IFETCH.latency_hist_seqr::max_bucket         5119                       (Unspecified)
system.caches.RequestType.IFETCH.latency_hist_seqr::samples    144241815                       (Unspecified)
system.caches.RequestType.IFETCH.latency_hist_seqr::mean     1.017343                       (Unspecified)
system.caches.RequestType.IFETCH.latency_hist_seqr::gmean     1.001191                       (Unspecified)
system.caches.RequestType.IFETCH.latency_hist_seqr::stdev     2.155828                       (Unspecified)
system.caches.RequestType.IFETCH.latency_hist_seqr |   144241575    100.00%    100.00% |         190      0.00%    100.00% |          19      0.00%    100.00% |          29      0.00%    100.00% |           1      0.00%    100.00% |           1      0.00%    100.00% |           0      0.00%    100.00% |           0      0.00%    100.00% |           0      0.00%    100.00% |           0      0.00%    100.00% (Unspecified)
system.caches.RequestType.IFETCH.latency_hist_seqr::total    144241815                       (Unspecified)
system.caches.RequestType.IFETCH.hit_latency_hist_seqr::bucket_size            1                       (Unspecified)
system.caches.RequestType.IFETCH.hit_latency_hist_seqr::max_bucket            9                       (Unspecified)
system.caches.RequestType.IFETCH.hit_latency_hist_seqr::samples    144182967                       (Unspecified)
system.caches.RequestType.IFETCH.hit_latency_hist_seqr::mean            1                       (Unspecified)
system.caches.RequestType.IFETCH.hit_latency_hist_seqr::gmean            1                       (Unspecified)
system.caches.RequestType.IFETCH.hit_latency_hist_seqr |           0      0.00%      0.00% |   144182967    100.00%    100.00% |           0      0.00%    100.00% |           0      0.00%    100.00% |           0      0.00%    100.00% |           0      0.00%    100.00% |           0      0.00%    100.00% |           0      0.00%    100.00% |           0      0.00%    100.00% |           0      0.00%    100.00% (Unspecified)
system.caches.RequestType.IFETCH.hit_latency_hist_seqr::total    144182967                       (Unspecified)
system.caches.RequestType.IFETCH.miss_latency_hist_seqr::bucket_size          512                       (Unspecified)
system.caches.RequestType.IFETCH.miss_latency_hist_seqr::max_bucket         5119                       (Unspecified)
system.caches.RequestType.IFETCH.miss_latency_hist_seqr::samples        58848                       (Unspecified)
system.caches.RequestType.IFETCH.miss_latency_hist_seqr::mean    43.508751                       (Unspecified)
system.caches.RequestType.IFETCH.miss_latency_hist_seqr::gmean    18.504439                       (Unspecified)
system.caches.RequestType.IFETCH.miss_latency_hist_seqr::stdev    97.905998                       (Unspecified)
system.caches.RequestType.IFETCH.miss_latency_hist_seqr |       58608     99.59%     99.59% |         190      0.32%     99.92% |          19      0.03%     99.95% |          29      0.05%    100.00% |           1      0.00%    100.00% |           1      0.00%    100.00% |           0      0.00%    100.00% |           0      0.00%    100.00% |           0      0.00%    100.00% |           0      0.00%    100.00% (Unspecified)
system.caches.RequestType.IFETCH.miss_latency_hist_seqr::total        58848                       (Unspecified)
system.caches.RequestType.RMW_Read.latency_hist_seqr::bucket_size          512                       (Unspecified)
system.caches.RequestType.RMW_Read.latency_hist_seqr::max_bucket         5119                       (Unspecified)
system.caches.RequestType.RMW_Read.latency_hist_seqr::samples        26261                       (Unspecified)
system.caches.RequestType.RMW_Read.latency_hist_seqr::mean    55.462625                       (Unspecified)
system.caches.RequestType.RMW_Read.latency_hist_seqr::gmean     1.866825                       (Unspecified)
system.caches.RequestType.RMW_Read.latency_hist_seqr::stdev   220.691505                       (Unspecified)
[...]
system.o3Cpu7.iew.predictedNotTakenIncorrect         1534                       # Number of branches that were predicted not taken incorrectly (Count)
system.o3Cpu7.iew.branchMispredicts              4102                       # Number of branch mispredicts detected at execute (Count)
system.o3Cpu7.iew.instsToCommit             226136421                       # Cumulative count of insts sent to commit (Count)
system.o3Cpu7.iew.writebackCount            226135866                       # Cumulative count of insts written-back (Count)
system.o3Cpu7.iew.producerInst              173018391                       # Number of instructions producing a value (Count)
system.o3Cpu7.iew.consumerInst              269624510                       # Number of instructions consuming a value (Count)
system.o3Cpu7.iew.wbRate                     1.493308                       # Insts written-back per cycle ((Count/Cycle))
system.o3Cpu7.iew.wbFanout                   0.641701                       # Average fanout of values written-back ((Count/Count))
system.o3Cpu7.interrupts.clk_domain.clock         3200                       # Clock period in ticks (Tick)
system.o3Cpu7.lsq0.forwLoads                   133319                       # Number of loads that had data forwarded from stores (Count)
system.o3Cpu7.lsq0.squashedLoads                 5908                       # Number of loads squashed (Count)
system.o3Cpu7.lsq0.ignoredResponses                 7                       # Number of memory responses ignored because the instruction is squashed (Count)
system.o3Cpu7.lsq0.memOrderViolation              332                       # Number of memory ordering violations (Count)
system.o3Cpu7.lsq0.squashedStores                2813                       # Number of stores squashed (Count)
system.o3Cpu7.lsq0.rescheduledLoads                22                       # Number of loads that were rescheduled (Count)
system.o3Cpu7.lsq0.blockedByCache                   0                       # Number of times an access to memory failed due to the cache being blocked (Count)
system.o3Cpu7.lsq0.loadToUse::samples        51426275                       # Distribution of cycle latency between the first time a load is issued and its completion (Unspecified)
system.o3Cpu7.lsq0.loadToUse::mean           3.075611                       # Distribution of cycle latency between the first time a load is issued and its completion (Unspecified)
system.o3Cpu7.lsq0.loadToUse::stdev          7.746894                       # Distribution of cycle latency between the first time a load is issued and its completion (Unspecified)
system.o3Cpu7.lsq0.loadToUse::0-9            51417207     99.98%     99.98% # Distribution of cycle latency between the first time a load is issued and its completion (Unspecified)
system.o3Cpu7.lsq0.loadToUse::10-19              1290      0.00%     99.98% # Distribution of cycle latency between the first time a load is issued and its completion (Unspecified)
system.o3Cpu7.lsq0.loadToUse::20-29               749      0.00%     99.99% # Distribution of cycle latency between the first time a load is issued and its completion (Unspecified)
system.o3Cpu7.lsq0.loadToUse::30-39               268      0.00%     99.99% # Distribution of cycle latency between the first time a load is issued and its completion (Unspecified)
system.o3Cpu7.lsq0.loadToUse::40-49               288      0.00%     99.99% # Distribution of cycle latency between the first time a load is issued and its completion (Unspecified)
system.o3Cpu7.lsq0.loadToUse::50-59               140      0.00%     99.99% # Distribution of cycle latency between the first time a load is issued and its completion (Unspecified)
system.o3Cpu7.lsq0.loadToUse::60-69               100      0.00%     99.99% # Distribution of cycle latency between the first time a load is issued and its completion (Unspecified)
system.o3Cpu7.lsq0.loadToUse::70-79                68      0.00%     99.99% # Distribution of cycle latency between the first time a load is issued and its completion (Unspecified)
system.o3Cpu7.lsq0.loadToUse::80-89                67      0.00%     99.99% # Distribution of cycle latency between the first time a load is issued and its completion (Unspecified)
system.o3Cpu7.lsq0.loadToUse::90-99                30      0.00%     99.99% # Distribution of cycle latency between the first time a load is issued and its completion (Unspecified)
system.o3Cpu7.lsq0.loadToUse::100-109              28      0.00%     99.99% # Distribution of cycle latency between the first time a load is issued and its completion (Unspecified)
system.o3Cpu7.lsq0.loadToUse::110-119              26      0.00%     99.99% # Distribution of cycle latency between the first time a load is issued and its completion (Unspecified)
system.o3Cpu7.lsq0.loadToUse::120-129              20      0.00%     99.99% # Distribution of cycle latency between the first time a load is issued and its completion (Unspecified)
system.o3Cpu7.lsq0.loadToUse::130-139              20      0.00%     99.99% # Distribution of cycle latency between the first time a load is issued and its completion (Unspecified)
system.o3Cpu7.lsq0.loadToUse::140-149              14      0.00%     99.99% # Distribution of cycle latency between the first time a load is issued and its completion (Unspecified)
system.o3Cpu7.lsq0.loadToUse::150-159               9      0.00%     99.99% # Distribution of cycle latency between the first time a load is issued and its completion (Unspecified)
system.o3Cpu7.lsq0.loadToUse::160-169               8      0.00%     99.99% # Distribution of cycle latency between the first time a load is issued and its completion (Unspecified)
system.o3Cpu7.lsq0.loadToUse::170-179              27      0.00%     99.99% # Distribution of cycle latency between the first time a load is issued and its completion (Unspecified)
system.o3Cpu7.lsq0.loadToUse::180-189              62      0.00%     99.99% # Distribution of cycle latency between the first time a load is issued and its completion (Unspecified)
system.o3Cpu7.lsq0.loadToUse::190-199              96      0.00%     99.99% # Distribution of cycle latency between the first time a load is issued and its completion (Unspecified)
system.o3Cpu7.lsq0.loadToUse::200-209              74      0.00%     99.99% # Distribution of cycle latency between the first time a load is issued and its completion (Unspecified)
system.o3Cpu7.lsq0.loadToUse::210-219             170      0.00%     99.99% # Distribution of cycle latency between the first time a load is issued and its completion (Unspecified)
system.o3Cpu7.lsq0.loadToUse::220-229             355      0.00%     99.99% # Distribution of cycle latency between the first time a load is issued and its completion (Unspecified)
system.o3Cpu7.lsq0.loadToUse::230-239              51      0.00%     99.99% # Distribution of cycle latency between the first time a load is issued and its completion (Unspecified)
system.o3Cpu7.lsq0.loadToUse::240-249              83      0.00%     99.99% # Distribution of cycle latency between the first time a load is issued and its completion (Unspecified)
system.o3Cpu7.lsq0.loadToUse::250-259              44      0.00%     99.99% # Distribution of cycle latency between the first time a load is issued and its completion (Unspecified)
system.o3Cpu7.lsq0.loadToUse::260-269              38      0.00%     99.99% # Distribution of cycle latency between the first time a load is issued and its completion (Unspecified)
system.o3Cpu7.lsq0.loadToUse::270-279              29      0.00%     99.99% # Distribution of cycle latency between the first time a load is issued and its completion (Unspecified)
system.o3Cpu7.lsq0.loadToUse::280-289              32      0.00%     99.99% # Distribution of cycle latency between the first time a load is issued and its completion (Unspecified)
system.o3Cpu7.lsq0.loadToUse::290-299             145      0.00%     99.99% # Distribution of cycle latency between the first time a load is issued and its completion (Unspecified)
system.o3Cpu7.lsq0.loadToUse::overflows          4737      0.01%    100.00% # Distribution of cycle latency between the first time a load is issued and its completion (Unspecified)
system.o3Cpu7.lsq0.loadToUse::min_value             2                       # Distribution of cycle latency between the first time a load is issued and its completion (Unspecified)
system.o3Cpu7.lsq0.loadToUse::max_value          3536                       # Distribution of cycle latency between the first time a load is issued and its completion (Unspecified)
system.o3Cpu7.lsq0.loadToUse::total          51426275                       # Distribution of cycle latency between the first time a load is issued and its completion (Unspecified)
system.o3Cpu7.mmu.dtb.rdAccesses             51430454                       # TLB accesses on read requests (Count)
system.o3Cpu7.mmu.dtb.wrAccesses              5704968                       # TLB accesses on write requests (Count)
system.o3Cpu7.mmu.dtb.rdMisses                   1060                       # TLB misses on read requests (Count)
system.o3Cpu7.mmu.dtb.wrMisses                    618                       # TLB misses on write requests (Count)
system.o3Cpu7.mmu.dtb.walker.power_state.pwrStateResidencyTicks::UNDEFINED  33440854000                       # Cumulative time (in ticks) in various power states (Tick)
system.o3Cpu7.mmu.itb.rdAccesses                    0                       # TLB accesses on read requests (Count)
system.o3Cpu7.mmu.itb.wrAccesses             18031762                       # TLB accesses on write requests (Count)
system.o3Cpu7.mmu.itb.rdMisses                      0                       # TLB misses on read requests (Count)
system.o3Cpu7.mmu.itb.wrMisses                     69                       # TLB misses on write requests (Count)
system.o3Cpu7.mmu.itb.walker.power_state.pwrStateResidencyTicks::UNDEFINED  33440854000                       # Cumulative time (in ticks) in various power states (Tick)
system.o3Cpu7.power_state.numTransitions            6                       # Number of power state transitions (Count)
system.o3Cpu7.power_state.ticksClkGated::samples            3                       # Distribution of time spent in the clock gated state (Tick)
system.o3Cpu7.power_state.ticksClkGated::mean    713413000                       # Distribution of time spent in the clock gated state (Tick)
system.o3Cpu7.power_state.ticksClkGated::stdev 425404991.615049                       # Distribution of time spent in the clock gated state (Tick)
system.o3Cpu7.power_state.ticksClkGated::1000-5e+10            3    100.00%    100.00% # Distribution of time spent in the clock gated state (Tick)
system.o3Cpu7.power_state.ticksClkGated::min_value    224224000                       # Distribution of time spent in the clock gated state (Tick)
system.o3Cpu7.power_state.ticksClkGated::max_value    996608000                       # Distribution of time spent in the clock gated state (Tick)
system.o3Cpu7.power_state.ticksClkGated::total            3                       # Distribution of time spent in the clock gated state (Tick)
system.o3Cpu7.power_state.pwrStateResidencyTicks::ON  19227149000                       # Cumulative time (in ticks) in various power states (Tick)
system.o3Cpu7.power_state.pwrStateResidencyTicks::CLK_GATED   2140239000                       # Cumulative time (in ticks) in various power states (Tick)
system.o3Cpu7.power_state.pwrStateResidencyTicks::OFF  12073466000                       # Cumulative time (in ticks) in various power states (Tick)
system.o3Cpu7.rename.squashCycles                4287                       # Number of cycles rename is squashing (Cycle)
system.o3Cpu7.rename.idleCycles              20606512                       # Number of cycles rename is idle (Cycle)
system.o3Cpu7.rename.blockCycles             23146835                       # Number of cycles rename is blocking (Cycle)
system.o3Cpu7.rename.serializeStallCycles       179792                       # count of cycles rename stalled for serializing inst (Cycle)
system.o3Cpu7.rename.runCycles               63367469                       # Number of cycles rename is running (Cycle)
system.o3Cpu7.rename.unblockCycles           44106543                       # Number of cycles rename is unblocking (Cycle)
system.o3Cpu7.rename.renamedInsts           226157382                       # Number of instructions processed by rename (Count)
system.o3Cpu7.rename.ROBFullEvents               7529                       # Number of times rename has blocked due to ROB full (Count)
system.o3Cpu7.rename.IQFullEvents               22632                       # Number of times rename has blocked due to IQ full (Count)
system.o3Cpu7.rename.LQFullEvents               80551                       # Number of times rename has blocked due to LQ full (Count)
system.o3Cpu7.rename.SQFullEvents            43965702                       # Number of times rename has blocked due to SQ full (Count)
system.o3Cpu7.rename.fullRegistersEvents           21                       # Number of times there has been no free registers (Count)
system.o3Cpu7.rename.renamedOperands        246763760                       # Number of destination operands rename has renamed (Count)
system.o3Cpu7.rename.lookups                587337301                       # Number of register rename lookups that rename has made (Count)
system.o3Cpu7.rename.intLookups              87692481                       # Number of integer rename lookups (Count)
system.o3Cpu7.rename.fpLookups              321207034                       # Number of floating rename lookups (Count)
system.o3Cpu7.rename.committedMaps          246698497                       # Number of HB maps that are committed (Count)
system.o3Cpu7.rename.undoneMaps                 65242                       # Number of HB maps that are undone due to squashing (Count)
system.o3Cpu7.rename.serializing                 1579                       # count of serializing insts renamed (Count)
system.o3Cpu7.rename.tempSerializing             1625                       # count of temporary serializing insts renamed (Count)
system.o3Cpu7.rename.skidInsts                1218741                       # count of insts added to the skid buffer (Count)
system.o3Cpu7.rob.reads                     342904653                       # The number of ROB reads (Count)
system.o3Cpu7.rob.writes                    452313477                       # The number of ROB writes (Count)
system.o3Cpu7.thread_0.numInsts             108041834                       # Number of Instructions committed (Count)
system.o3Cpu7.thread_0.numOps               226114034                       # Number of Ops committed (Count)
system.o3Cpu7.thread_0.numMemRefs                   0                       # Number of Memory References (Count)
system.pc.bad_addr.power_state.pwrStateResidencyTicks::UNDEFINED  33440854000                       # Cumulative time (in ticks) in various power states (Tick)
system.pc.com_1.power_state.pwrStateResidencyTicks::UNDEFINED  33440854000                       # Cumulative time (in ticks) in various power states (Tick)
system.pc.default_bus.power_state.pwrStateResidencyTicks::UNDEFINED  33440854000                       # Cumulative time (in ticks) in various power states (Tick)
system.pc.empty_isa.power_state.pwrStateResidencyTicks::UNDEFINED  33440854000                       # Cumulative time (in ticks) in various power states (Tick)
system.pc.fake_com_2.power_state.pwrStateResidencyTicks::UNDEFINED  33440854000                       # Cumulative time (in ticks) in various power states (Tick)
system.pc.fake_com_3.power_state.pwrStateResidencyTicks::UNDEFINED  33440854000                       # Cumulative time (in ticks) in various power states (Tick)
system.pc.fake_com_4.power_state.pwrStateResidencyTicks::UNDEFINED  33440854000                       # Cumulative time (in ticks) in various power states (Tick)
system.pc.fake_floppy.power_state.pwrStateResidencyTicks::UNDEFINED  33440854000                       # Cumulative time (in ticks) in various power states (Tick)
system.pc.pci_host.power_state.pwrStateResidencyTicks::UNDEFINED  33440854000                       # Cumulative time (in ticks) in various power states (Tick)
system.pc.south_bridge.cmos.power_state.pwrStateResidencyTicks::UNDEFINED  33440854000                       # Cumulative time (in ticks) in various power states (Tick)
system.pc.south_bridge.dma1.power_state.pwrStateResidencyTicks::UNDEFINED  33440854000                       # Cumulative time (in ticks) in various power states (Tick)
system.pc.south_bridge.ide.disks0.IdeDisk.dmaReadFullPages            0                       # Number of full page size DMA reads (not PRD). (Count)
system.pc.south_bridge.ide.disks0.IdeDisk.dmaReadBytes            0                       # Number of bytes transfered via DMA reads (not PRD). (Byte)
system.pc.south_bridge.ide.disks0.IdeDisk.dmaReadTxs            0                       # Number of DMA read transactions (not PRD). (Count)
system.pc.south_bridge.ide.disks0.IdeDisk.dmaWriteFullPages            0                       # Number of full page size DMA writes. (Count)
system.pc.south_bridge.ide.disks0.IdeDisk.dmaWriteBytes            0                       # Number of bytes transfered via DMA writes. (Byte)
system.pc.south_bridge.ide.disks0.IdeDisk.dmaWriteTxs            0                       # Number of DMA write transactions. (Count)
system.pc.south_bridge.ide.disks1.IdeDisk.dmaReadFullPages            0                       # Number of full page size DMA reads (not PRD). (Count)
system.pc.south_bridge.ide.disks1.IdeDisk.dmaReadBytes            0                       # Number of bytes transfered via DMA reads (not PRD). (Byte)
system.pc.south_bridge.ide.disks1.IdeDisk.dmaReadTxs            0                       # Number of DMA read transactions (not PRD). (Count)
system.pc.south_bridge.ide.disks1.IdeDisk.dmaWriteFullPages            0                       # Number of full page size DMA writes. (Count)
system.pc.south_bridge.ide.disks1.IdeDisk.dmaWriteBytes            0                       # Number of bytes transfered via DMA writes. (Byte)
system.pc.south_bridge.ide.disks1.IdeDisk.dmaWriteTxs            0                       # Number of DMA write transactions. (Count)
system.pc.south_bridge.ide.power_state.pwrStateResidencyTicks::UNDEFINED  33440854000                       # Cumulative time (in ticks) in various power states (Tick)
system.pc.south_bridge.io_apic.power_state.pwrStateResidencyTicks::UNDEFINED  33440854000                       # Cumulative time (in ticks) in various power states (Tick)
system.pc.south_bridge.keyboard.power_state.pwrStateResidencyTicks::UNDEFINED  33440854000                       # Cumulative time (in ticks) in various power states (Tick)
system.pc.south_bridge.pic1.power_state.pwrStateResidencyTicks::UNDEFINED  33440854000                       # Cumulative time (in ticks) in various power states (Tick)
system.pc.south_bridge.pic2.power_state.pwrStateResidencyTicks::UNDEFINED  33440854000                       # Cumulative time (in ticks) in various power states (Tick)
system.pc.south_bridge.pit.power_state.pwrStateResidencyTicks::UNDEFINED  33440854000                       # Cumulative time (in ticks) in various power states (Tick)
system.pc.south_bridge.speaker.power_state.pwrStateResidencyTicks::UNDEFINED  33440854000                       # Cumulative time (in ticks) in various power states (Tick)
system.workload.inst.arm                            0                       # number of arm instructions executed (Count)
system.workload.inst.quiesce                        0                       # number of quiesce instructions executed (Count)

---------- End Simulation Statistics   ----------
