
---------- Begin Simulation Statistics ----------
simSeconds                                   0.021284                       # Number of seconds simulated (Second)
simTicks                                  21284140000                       # Number of ticks simulated (Tick)
finalTick                                104650988240600                       # Number of ticks from beginning of simulation (restored from checkpoints and never reset) (Tick)
simFreq                                  1000000000000                       # The number of ticks per simulated second ((Tick/Second))
hostSeconds                                  16028.02                       # Real time elapsed on the host (Second)
hostTickRate                                  1327933                       # The number of ticks simulated per host second (ticks/s) ((Tick/Second))
hostMemory                                   20080592                       # Number of bytes of host memory used (Byte)
simInsts                                    861416262                       # Number of instructions simulated (Count)
simOps                                     1804045245                       # Number of ops (including micro ops) simulated (Count)
hostInstRate                                    53744                       # Simulator instruction rate (inst/s) ((Count/Second))
hostOpRate                                     112556                       # Simulator op (including micro ops) rate (op/s) ((Count/Second))
system.caches.delayHistogram::bucket_size            8                       # delay histogram for all message (Unspecified)
system.caches.delayHistogram::max_bucket           79                       # delay histogram for all message (Unspecified)
system.caches.delayHistogram::samples         8854010                       # delay histogram for all message (Unspecified)
system.caches.delayHistogram::mean           1.057822                       # delay histogram for all message (Unspecified)
system.caches.delayHistogram::stdev          2.725137                       # delay histogram for all message (Unspecified)
system.caches.delayHistogram             |     7939636     89.67%     89.67% |      903873     10.21%     99.88% |        9928      0.11%     99.99% |         302      0.00%    100.00% |         121      0.00%    100.00% |          48      0.00%    100.00% |          22      0.00%    100.00% |          48      0.00%    100.00% |          31      0.00%    100.00% |           1      0.00%    100.00% # delay histogram for all message (Unspecified)
system.caches.delayHistogram::total           8854010                       # delay histogram for all message (Unspecified)
system.caches.m_outstandReqHistSeqr::bucket_size            2                       (Unspecified)
system.caches.m_outstandReqHistSeqr::max_bucket           19                       (Unspecified)
system.caches.m_outstandReqHistSeqr::samples    384415927                       (Unspecified)
system.caches.m_outstandReqHistSeqr::mean     2.497606                       (Unspecified)
system.caches.m_outstandReqHistSeqr::gmean     2.197422                       (Unspecified)
system.caches.m_outstandReqHistSeqr::stdev     1.247728                       (Unspecified)
system.caches.m_outstandReqHistSeqr      |    85046902     22.12%     22.12% |   217463977     56.57%     78.69% |    76638859     19.94%     98.63% |     5211246      1.36%     99.99% |       11032      0.00%     99.99% |        6883      0.00%     99.99% |        8835      0.00%     99.99% |        9364      0.00%    100.00% |       18829      0.00%    100.00% |           0      0.00%    100.00% (Unspecified)
system.caches.m_outstandReqHistSeqr::total    384415927                       (Unspecified)
system.caches.m_latencyHistSeqr::bucket_size          512                       (Unspecified)
system.caches.m_latencyHistSeqr::max_bucket         5119                       (Unspecified)
system.caches.m_latencyHistSeqr::samples    384991731                       (Unspecified)
system.caches.m_latencyHistSeqr::mean        2.676934                       (Unspecified)
system.caches.m_latencyHistSeqr::gmean       1.033810                       (Unspecified)
system.caches.m_latencyHistSeqr::stdev      34.052381                       (Unspecified)
system.caches.m_latencyHistSeqr          |   384511044     99.88%     99.88% |      448928      0.12%     99.99% |       12860      0.00%    100.00% |        5764      0.00%    100.00% |        8693      0.00%    100.00% |        4301      0.00%    100.00% |         134      0.00%    100.00% |           4      0.00%    100.00% |           3      0.00%    100.00% |           0      0.00%    100.00% (Unspecified)
system.caches.m_latencyHistSeqr::total      384991731                       (Unspecified)
system.caches.m_hitLatencyHistSeqr::bucket_size          128                       (Unspecified)
system.caches.m_hitLatencyHistSeqr::max_bucket         1279                       (Unspecified)
system.caches.m_hitLatencyHistSeqr::samples    383669001                       (Unspecified)
system.caches.m_hitLatencyHistSeqr::mean     1.018813                       (Unspecified)
system.caches.m_hitLatencyHistSeqr::gmean     1.012999                       (Unspecified)
system.caches.m_hitLatencyHistSeqr::stdev     0.343354                       (Unspecified)
system.caches.m_hitLatencyHistSeqr       |   383668853    100.00%    100.00% |          20      0.00%    100.00% |          41      0.00%    100.00% |          36      0.00%    100.00% |          20      0.00%    100.00% |          18      0.00%    100.00% |          10      0.00%    100.00% |           3      0.00%    100.00% |           0      0.00%    100.00% |           0      0.00%    100.00% (Unspecified)
system.caches.m_hitLatencyHistSeqr::total    383669001                       (Unspecified)
system.caches.m_missLatencyHistSeqr::bucket_size          512                       (Unspecified)
system.caches.m_missLatencyHistSeqr::max_bucket         5119                       (Unspecified)
system.caches.m_missLatencyHistSeqr::samples      1322730                       (Unspecified)
system.caches.m_missLatencyHistSeqr::mean   483.628981                       (Unspecified)
system.caches.m_missLatencyHistSeqr::gmean   376.810183                       (Unspecified)
system.caches.m_missLatencyHistSeqr::stdev   324.583747                       (Unspecified)
system.caches.m_missLatencyHistSeqr      |      842094     63.66%     63.66% |      448877     33.94%     97.60% |       12860      0.97%     98.57% |        5764      0.44%     99.01% |        8693      0.66%     99.66% |        4301      0.33%     99.99% |         134      0.01%    100.00% |           4      0.00%    100.00% |           3      0.00%    100.00% |           0      0.00%    100.00% (Unspecified)
system.caches.m_missLatencyHistSeqr::total      1322730                       (Unspecified)
system.caches.delayVCHist.vnet_0::bucket_size            8                       # delay histogram for vnet_0 (Unspecified)
system.caches.delayVCHist.vnet_0::max_bucket           79                       # delay histogram for vnet_0 (Unspecified)
system.caches.delayVCHist.vnet_0::samples      3804433                       # delay histogram for vnet_0 (Unspecified)
system.caches.delayVCHist.vnet_0::mean       2.436880                       # delay histogram for vnet_0 (Unspecified)
system.caches.delayVCHist.vnet_0::stdev      3.708602                       # delay histogram for vnet_0 (Unspecified)
system.caches.delayVCHist.vnet_0         |     2892087     76.02%     76.02% |      902288     23.72%     99.74% |        9670      0.25%     99.99% |         209      0.01%    100.00% |          63      0.00%    100.00% |          22      0.00%    100.00% |          17      0.00%    100.00% |          46      0.00%    100.00% |          30      0.00%    100.00% |           1      0.00%    100.00% # delay histogram for vnet_0 (Unspecified)
system.caches.delayVCHist.vnet_0::total       3804433                       # delay histogram for vnet_0 (Unspecified)
system.caches.delayVCHist.vnet_1::bucket_size            8                       # delay histogram for vnet_1 (Unspecified)
system.caches.delayVCHist.vnet_1::max_bucket           79                       # delay histogram for vnet_1 (Unspecified)
system.caches.delayVCHist.vnet_1::samples      4970499                       # delay histogram for vnet_1 (Unspecified)
system.caches.delayVCHist.vnet_1::mean       0.019106                       # delay histogram for vnet_1 (Unspecified)
system.caches.delayVCHist.vnet_1::stdev      0.386198                       # delay histogram for vnet_1 (Unspecified)
system.caches.delayVCHist.vnet_1         |     4968471     99.96%     99.96% |        1585      0.03%     99.99% |         258      0.01%    100.00% |          93      0.00%    100.00% |          58      0.00%    100.00% |          26      0.00%    100.00% |           5      0.00%    100.00% |           2      0.00%    100.00% |           1      0.00%    100.00% |           0      0.00%    100.00% # delay histogram for vnet_1 (Unspecified)
system.caches.delayVCHist.vnet_1::total       4970499                       # delay histogram for vnet_1 (Unspecified)
system.caches.delayVCHist.vnet_2::bucket_size            1                       # delay histogram for vnet_2 (Unspecified)
system.caches.delayVCHist.vnet_2::max_bucket            9                       # delay histogram for vnet_2 (Unspecified)
system.caches.delayVCHist.vnet_2::samples        79078                       # delay histogram for vnet_2 (Unspecified)
system.caches.delayVCHist.vnet_2::mean       0.000683                       # delay histogram for vnet_2 (Unspecified)
system.caches.delayVCHist.vnet_2::stdev      0.050787                       # delay histogram for vnet_2 (Unspecified)
system.caches.delayVCHist.vnet_2         |       79060     99.98%     99.98% |           0      0.00%     99.98% |          12      0.02%     99.99% |           0      0.00%     99.99% |           3      0.00%    100.00% |           0      0.00%    100.00% |           3      0.00%    100.00% |           0      0.00%    100.00% |           0      0.00%    100.00% |           0      0.00%    100.00% # delay histogram for vnet_2 (Unspecified)
system.caches.delayVCHist.vnet_2::total         79078                       # delay histogram for vnet_2 (Unspecified)
system.caches.L1Cache_Controller.Load    |    32238270     12.27%     12.27% |    35435475     13.49%     25.75% |    32529360     12.38%     38.13% |    34211863     13.02%     51.15% |    31794800     12.10%     63.25% |    32197588     12.25%     75.50% |    32361585     12.32%     87.82% |    32006536     12.18%    100.00% (Unspecified)
system.caches.L1Cache_Controller.Load::total    262775477                       (Unspecified)
system.caches.L1Cache_Controller.Ifetch  |     9394594     12.24%     12.24% |    10159988     13.24%     25.47% |     9544992     12.43%     37.91% |     9953418     12.97%     50.87% |     9313303     12.13%     63.01% |     9438586     12.30%     75.30% |     9570074     12.47%     87.77% |     9387694     12.23%    100.00% (Unspecified)
system.caches.L1Cache_Controller.Ifetch::total     76762649                       (Unspecified)
system.caches.L1Cache_Controller.Store   |     5442785     11.97%     11.97% |     5611028     12.34%     24.32% |     5908733     13.00%     37.32% |     5898346     12.98%     50.29% |     5469424     12.03%     62.33% |     5561923     12.24%     74.56% |     5963164     13.12%     87.68% |     5598211     12.32%    100.00% (Unspecified)
system.caches.L1Cache_Controller.Store::total     45453614                       (Unspecified)
system.caches.L1Cache_Controller.Inv     |       19285     26.08%     26.08% |       19845     26.84%     52.93% |        4447      6.01%     58.94% |        5092      6.89%     65.83% |        7157      9.68%     75.51% |        7111      9.62%     85.13% |        4170      5.64%     90.77% |        6827      9.23%    100.00% (Unspecified)
system.caches.L1Cache_Controller.Inv::total        73934                       (Unspecified)
system.caches.L1Cache_Controller.L1_Replacement |      137510     11.00%     11.00% |      114326      9.14%     20.14% |      188307     15.06%     35.20% |      162850     13.02%     48.22% |      145993     11.67%     59.90% |      150387     12.03%     71.92% |      193224     15.45%     87.37% |      157885     12.63%    100.00% (Unspecified)
system.caches.L1Cache_Controller.L1_Replacement::total      1250482                       (Unspecified)
system.caches.L1Cache_Controller.Fwd_GETX |          70      1.67%      1.67% |          32      0.76%      2.44% |         333      7.95%     10.39% |         264      6.30%     16.69% |         309      7.38%     24.07% |         318      7.59%     31.66% |        2550     60.89%     92.55% |         312      7.45%    100.00% (Unspecified)
system.caches.L1Cache_Controller.Fwd_GETX::total         4188                       (Unspecified)
system.caches.L1Cache_Controller.Fwd_GETS |         316     33.05%     33.05% |         173     18.10%     51.15% |          74      7.74%     58.89% |          57      5.96%     64.85% |          98     10.25%     75.10% |          64      6.69%     81.80% |         109     11.40%     93.20% |          65      6.80%    100.00% (Unspecified)
system.caches.L1Cache_Controller.Fwd_GETS::total          956                       (Unspecified)
system.caches.L1Cache_Controller.Data    |           7     53.85%     53.85% |           0      0.00%     53.85% |           2     15.38%     69.23% |           0      0.00%     69.23% |           1      7.69%     76.92% |           2     15.38%     92.31% |           1      7.69%    100.00% |           0      0.00%    100.00% (Unspecified)
system.caches.L1Cache_Controller.Data::total           13                       (Unspecified)
system.caches.L1Cache_Controller.Data_Exclusive |        1796     11.02%     11.02% |        1251      7.68%     18.70% |        2697     16.56%     35.26% |        2029     12.45%     47.71% |        1872     11.49%     59.20% |        1901     11.67%     70.87% |        2757     16.92%     87.80% |        1988     12.20%    100.00% (Unspecified)
system.caches.L1Cache_Controller.Data_Exclusive::total        16291                       (Unspecified)
system.caches.L1Cache_Controller.DataS_fromL1 |         172     17.99%     17.99% |         207     21.65%     39.64% |         100     10.46%     50.10% |          76      7.95%     58.05% |         131     13.70%     71.76% |          95      9.94%     81.69% |         106     11.09%     92.78% |          69      7.22%    100.00% (Unspecified)
system.caches.L1Cache_Controller.DataS_fromL1::total          956                       (Unspecified)
system.caches.L1Cache_Controller.Data_all_Acks |      138387     10.61%     10.61% |      122594      9.40%     20.00% |      195388     14.97%     34.97% |      170605     13.07%     48.05% |      153811     11.79%     59.84% |      158234     12.13%     71.96% |      200138     15.34%     87.30% |      165716     12.70%    100.00% (Unspecified)
system.caches.L1Cache_Controller.Data_all_Acks::total      1304873                       (Unspecified)
system.caches.L1Cache_Controller.Ack     |         830     59.29%     59.29% |          47      3.36%     62.64% |          78      5.57%     68.21% |          73      5.21%     73.43% |          87      6.21%     79.64% |          77      5.50%     85.14% |         132      9.43%     94.57% |          76      5.43%    100.00% (Unspecified)
system.caches.L1Cache_Controller.Ack::total         1400                       (Unspecified)
system.caches.L1Cache_Controller.Ack_all |         194     31.80%     31.80% |          25      4.10%     35.90% |          63     10.33%     46.23% |          59      9.67%     55.90% |          55      9.02%     64.92% |          63     10.33%     75.25% |          83     13.61%     88.85% |          68     11.15%    100.00% (Unspecified)
system.caches.L1Cache_Controller.Ack_all::total          610                       (Unspecified)
system.caches.L1Cache_Controller.WB_Ack  |      118910     10.07%     10.07% |       95656      8.10%     18.17% |      184499     15.63%     33.80% |      158608     13.43%     47.23% |      139595     11.82%     59.05% |      144065     12.20%     71.26% |      187497     15.88%     87.14% |      151880     12.86%    100.00% (Unspecified)
system.caches.L1Cache_Controller.WB_Ack::total      1180710                       (Unspecified)
system.caches.L1Cache_Controller.NP.Load |        1960     10.58%     10.58% |        1269      6.85%     17.43% |        3115     16.82%     34.25% |        2337     12.62%     46.86% |        2162     11.67%     58.53% |        2215     11.96%     70.49% |        3168     17.10%     87.59% |        2298     12.41%    100.00% (Unspecified)
system.caches.L1Cache_Controller.NP.Load::total        18524                       (Unspecified)
system.caches.L1Cache_Controller.NP.Ifetch |        3387     29.87%     29.87% |        1064      9.38%     39.25% |        1237     10.91%     50.15% |        1184     10.44%     60.59% |        1249     11.01%     71.61% |        1187     10.47%     82.07% |         853      7.52%     89.60% |        1180     10.40%    100.00% (Unspecified)
system.caches.L1Cache_Controller.NP.Ifetch::total        11341                       (Unspecified)
system.caches.L1Cache_Controller.NP.Store |      132870     10.37%     10.37% |      120600      9.41%     19.78% |      192579     15.03%     34.80% |      167951     13.10%     47.91% |      151225     11.80%     59.71% |      155608     12.14%     71.85% |      197713     15.43%     87.28% |      163042     12.72%    100.00% (Unspecified)
system.caches.L1Cache_Controller.NP.Store::total      1281588                       (Unspecified)
system.caches.L1Cache_Controller.NP.Inv  |         855     24.30%     24.30% |         357     10.15%     34.45% |         406     11.54%     45.99% |         404     11.48%     57.48% |         437     12.42%     69.90% |         393     11.17%     81.07% |         273      7.76%     88.83% |         393     11.17%    100.00% (Unspecified)
system.caches.L1Cache_Controller.NP.Inv::total         3518                       (Unspecified)
system.caches.L1Cache_Controller.I.Load  |         426     12.16%     12.16% |         454     12.96%     25.12% |         432     12.33%     37.45% |         427     12.19%     49.64% |         441     12.59%     62.23% |         445     12.70%     74.94% |         435     12.42%     87.35% |         443     12.65%    100.00% (Unspecified)
system.caches.L1Cache_Controller.I.Load::total         3503                       (Unspecified)
system.caches.L1Cache_Controller.I.Ifetch |         929     16.52%     16.52% |         549      9.76%     26.28% |         728     12.95%     39.23% |         705     12.54%     51.77% |         635     11.29%     63.06% |         656     11.67%     74.73% |         726     12.91%     87.64% |         695     12.36%    100.00% (Unspecified)
system.caches.L1Cache_Controller.I.Ifetch::total         5623                       (Unspecified)
system.caches.L1Cache_Controller.I.Store |         791     50.67%     50.67% |         117      7.50%     58.17% |          97      6.21%     64.38% |         107      6.85%     71.24% |         104      6.66%     77.90% |         121      7.75%     85.65% |         108      6.92%     92.57% |         116      7.43%    100.00% (Unspecified)
system.caches.L1Cache_Controller.I.Store::total         1561                       (Unspecified)
system.caches.L1Cache_Controller.I.L1_Replacement |       15673     26.45%     26.45% |       17826     30.08%     56.53% |        2536      4.28%     60.81% |        3132      5.28%     66.09% |        5256      8.87%     74.96% |        5229      8.82%     83.78% |        4706      7.94%     91.72% |        4905      8.28%    100.00% (Unspecified)
system.caches.L1Cache_Controller.I.L1_Replacement::total        59263                       (Unspecified)
system.caches.L1Cache_Controller.S.Load  |    29359730     12.23%     12.23% |    31661928     13.19%     25.42% |    29884177     12.45%     37.87% |    31226477     13.01%     50.88% |    29186485     12.16%     63.04% |    29585956     12.33%     75.37% |    29703204     12.38%     87.75% |    29413551     12.25%    100.00% (Unspecified)
system.caches.L1Cache_Controller.S.Load::total    240021508                       (Unspecified)
system.caches.L1Cache_Controller.S.Ifetch |     9390276     12.24%     12.24% |    10158375     13.24%     25.47% |     9543027     12.43%     37.91% |     9951529     12.97%     50.87% |     9311419     12.13%     63.01% |     9436743     12.30%     75.30% |     9568495     12.47%     87.77% |     9385819     12.23%    100.00% (Unspecified)
system.caches.L1Cache_Controller.S.Ifetch::total     76745683                       (Unspecified)
system.caches.L1Cache_Controller.S.Store |         187     31.32%     31.32% |          25      4.19%     35.51% |          61     10.22%     45.73% |          59      9.88%     55.61% |          54      9.05%     64.66% |          61     10.22%     74.87% |          82     13.74%     88.61% |          68     11.39%    100.00% (Unspecified)
system.caches.L1Cache_Controller.S.Store::total          597                       (Unspecified)
system.caches.L1Cache_Controller.S.Inv   |        1987     15.33%     15.33% |        1456     11.24%     26.57% |        1627     12.56%     39.13% |        1597     12.32%     51.45% |        1582     12.21%     63.66% |        1576     12.16%     75.82% |        1521     11.74%     87.56% |        1612     12.44%    100.00% (Unspecified)
system.caches.L1Cache_Controller.S.Inv::total        12958                       (Unspecified)
system.caches.L1Cache_Controller.S.L1_Replacement |        2927     27.85%     27.85% |         844      8.03%     35.88% |        1272     12.10%     47.99% |        1110     10.56%     58.55% |        1142     10.87%     69.42% |        1093     10.40%     79.82% |        1021      9.72%     89.53% |        1100     10.47%    100.00% (Unspecified)
system.caches.L1Cache_Controller.S.L1_Replacement::total        10509                       (Unspecified)
system.caches.L1Cache_Controller.E.Load  |       26449      6.88%      6.88% |      310001     80.60%     87.48% |        9162      2.38%     89.86% |        7566      1.97%     91.83% |        7760      2.02%     93.84% |        6955      1.81%     95.65% |        9266      2.41%     98.06% |        7458      1.94%    100.00% (Unspecified)
system.caches.L1Cache_Controller.E.Load::total       384617                       (Unspecified)
system.caches.L1Cache_Controller.E.Store |         767      9.18%      9.18% |         575      6.88%     16.07% |        1478     17.69%     33.76% |        1011     12.10%     45.86% |        1032     12.35%     58.22% |        1008     12.07%     70.29% |        1470     17.60%     87.88% |        1012     12.12%    100.00% (Unspecified)
system.caches.L1Cache_Controller.E.Store::total         8353                       (Unspecified)
system.caches.L1Cache_Controller.E.Inv   |         136     12.71%     12.71% |         209     19.53%     32.24% |         108     10.09%     42.34% |         105      9.81%     52.15% |         134     12.52%     64.67% |         131     12.24%     76.92% |         117     10.93%     87.85% |         130     12.15%    100.00% (Unspecified)
system.caches.L1Cache_Controller.E.Inv::total         1070                       (Unspecified)
system.caches.L1Cache_Controller.E.L1_Replacement |         786     11.29%     11.29% |         424      6.09%     17.39% |        1177     16.91%     34.30% |         920     13.22%     47.52% |         759     10.91%     58.43% |         846     12.16%     70.58% |        1171     16.83%     87.41% |         876     12.59%    100.00% (Unspecified)
system.caches.L1Cache_Controller.E.L1_Replacement::total         6959                       (Unspecified)
system.caches.L1Cache_Controller.E.Fwd_GETX |           1      3.85%      3.85% |           2      7.69%     11.54% |           6     23.08%     34.62% |           3     11.54%     46.15% |           6     23.08%     69.23% |           4     15.38%     84.62% |           2      7.69%     92.31% |           2      7.69%    100.00% (Unspecified)
system.caches.L1Cache_Controller.E.Fwd_GETX::total           26                       (Unspecified)
system.caches.L1Cache_Controller.E.Fwd_GETS |          92     25.77%     25.77% |         143     40.06%     65.83% |          20      5.60%     71.43% |          15      4.20%     75.63% |          40     11.20%     86.83% |          18      5.04%     91.88% |          23      6.44%     98.32% |           6      1.68%    100.00% (Unspecified)
system.caches.L1Cache_Controller.E.Fwd_GETS::total          357                       (Unspecified)
system.caches.L1Cache_Controller.M.Load  |     2849705     12.75%     12.75% |     3461823     15.49%     28.24% |     2632474     11.78%     40.02% |     2975056     13.31%     53.34% |     2597952     11.63%     64.96% |     2602017     11.64%     76.60% |     2645512     11.84%     88.44% |     2582786     11.56%    100.00% (Unspecified)
system.caches.L1Cache_Controller.M.Load::total     22347325                       (Unspecified)
system.caches.L1Cache_Controller.M.Store |     5308170     12.02%     12.02% |     5489711     12.43%     24.45% |     5714518     12.94%     37.39% |     5729218     12.97%     50.36% |     5317009     12.04%     62.40% |     5405125     12.24%     74.64% |     5763791     13.05%     87.70% |     5433973     12.30%    100.00% (Unspecified)
system.caches.L1Cache_Controller.M.Store::total     44161515                       (Unspecified)
system.caches.L1Cache_Controller.M.Inv   |       16307     28.92%     28.92% |       17821     31.61%     60.53% |        2306      4.09%     64.62% |        2984      5.29%     69.92% |        5004      8.88%     78.79% |        5009      8.88%     87.68% |        2257      4.00%     91.68% |        4690      8.32%    100.00% (Unspecified)
system.caches.L1Cache_Controller.M.Inv::total        56378                       (Unspecified)
system.caches.L1Cache_Controller.M.L1_Replacement |      118124     10.06%     10.06% |       95232      8.11%     18.18% |      183322     15.62%     33.80% |      157688     13.43%     47.23% |      138836     11.83%     59.06% |      143219     12.20%     71.26% |      186326     15.87%     87.13% |      151004     12.87%    100.00% (Unspecified)
system.caches.L1Cache_Controller.M.L1_Replacement::total      1173751                       (Unspecified)
system.caches.L1Cache_Controller.M.Fwd_GETX |          69      1.66%      1.66% |          30      0.72%      2.38% |         327      7.86%     10.24% |         261      6.27%     16.51% |         303      7.28%     23.79% |         314      7.54%     31.33% |        2548     61.22%     92.55% |         310      7.45%    100.00% (Unspecified)
system.caches.L1Cache_Controller.M.Fwd_GETX::total         4162                       (Unspecified)
system.caches.L1Cache_Controller.M.Fwd_GETS |         224     37.40%     37.40% |          30      5.01%     42.40% |          54      9.02%     51.42% |          42      7.01%     58.43% |          58      9.68%     68.11% |          46      7.68%     75.79% |          86     14.36%     90.15% |          59      9.85%    100.00% (Unspecified)
system.caches.L1Cache_Controller.M.Fwd_GETS::total          599                       (Unspecified)
system.caches.L1Cache_Controller.IS.Inv  |           0      0.00%      0.00% |           2     20.00%     20.00% |           0      0.00%     20.00% |           2     20.00%     40.00% |           0      0.00%     40.00% |           2     20.00%     60.00% |           2     20.00%     80.00% |           2     20.00%    100.00% (Unspecified)
system.caches.L1Cache_Controller.IS.Inv::total           10                       (Unspecified)
system.caches.L1Cache_Controller.IS.Data_Exclusive |        1796     11.02%     11.02% |        1251      7.68%     18.70% |        2697     16.56%     35.26% |        2029     12.45%     47.71% |        1872     11.49%     59.20% |        1901     11.67%     70.87% |        2757     16.92%     87.80% |        1988     12.20%    100.00% (Unspecified)
system.caches.L1Cache_Controller.IS.Data_Exclusive::total        16291                       (Unspecified)
system.caches.L1Cache_Controller.IS.DataS_fromL1 |         172     17.99%     17.99% |         207     21.65%     39.64% |         100     10.46%     50.10% |          76      7.95%     58.05% |         131     13.70%     71.76% |          95      9.94%     81.69% |         106     11.09%     92.78% |          69      7.22%    100.00% (Unspecified)
system.caches.L1Cache_Controller.IS.DataS_fromL1::total          956                       (Unspecified)
system.caches.L1Cache_Controller.IS.Data_all_Acks |        4734     21.78%     21.78% |        1876      8.63%     30.41% |        2715     12.49%     42.91% |        2546     11.71%     54.62% |        2484     11.43%     66.05% |        2505     11.53%     77.57% |        2317     10.66%     88.24% |        2557     11.76%    100.00% (Unspecified)
system.caches.L1Cache_Controller.IS.Data_all_Acks::total        21734                       (Unspecified)
system.caches.L1Cache_Controller.IM.Data |           7     53.85%     53.85% |           0      0.00%     53.85% |           2     15.38%     69.23% |           0      0.00%     69.23% |           1      7.69%     76.92% |           2     15.38%     92.31% |           1      7.69%    100.00% |           0      0.00%    100.00% (Unspecified)
system.caches.L1Cache_Controller.IM.Data::total           13                       (Unspecified)
system.caches.L1Cache_Controller.IM.Data_all_Acks |      133653     10.42%     10.42% |      120716      9.41%     19.82% |      192673     15.02%     34.84% |      168057     13.10%     47.94% |      151327     11.79%     59.73% |      155727     12.14%     71.87% |      197819     15.42%     87.28% |      163157     12.72%    100.00% (Unspecified)
system.caches.L1Cache_Controller.IM.Data_all_Acks::total      1283129                       (Unspecified)
system.caches.L1Cache_Controller.SM.Ack  |         830     59.29%     59.29% |          47      3.36%     62.64% |          78      5.57%     68.21% |          73      5.21%     73.43% |          87      6.21%     79.64% |          77      5.50%     85.14% |         132      9.43%     94.57% |          76      5.43%    100.00% (Unspecified)
system.caches.L1Cache_Controller.SM.Ack::total         1400                       (Unspecified)
system.caches.L1Cache_Controller.SM.Ack_all |         194     31.80%     31.80% |          25      4.10%     35.90% |          63     10.33%     46.23% |          59      9.67%     55.90% |          55      9.02%     64.92% |          63     10.33%     75.25% |          83     13.61%     88.85% |          68     11.15%    100.00% (Unspecified)
system.caches.L1Cache_Controller.SM.Ack_all::total          610                       (Unspecified)
system.caches.L1Cache_Controller.IS_I.Data_all_Acks |           0      0.00%      0.00% |           2     20.00%     20.00% |           0      0.00%     20.00% |           2     20.00%     40.00% |           0      0.00%     40.00% |           2     20.00%     60.00% |           2     20.00%     80.00% |           2     20.00%    100.00% (Unspecified)
system.caches.L1Cache_Controller.IS_I.Data_all_Acks::total           10                       (Unspecified)
system.caches.L1Cache_Controller.M_I.Ifetch |           2    100.00%    100.00% |           0      0.00%    100.00% |           0      0.00%    100.00% |           0      0.00%    100.00% |           0      0.00%    100.00% |           0      0.00%    100.00% |           0      0.00%    100.00% |           0      0.00%    100.00% (Unspecified)
system.caches.L1Cache_Controller.M_I.Ifetch::total            2                       (Unspecified)
system.caches.L1Cache_Controller.M_I.WB_Ack |      118910     10.07%     10.07% |       95656      8.10%     18.17% |      184499     15.63%     33.80% |      158608     13.43%     47.23% |      139595     11.82%     59.05% |      144065     12.20%     71.26% |      187497     15.88%     87.14% |      151880     12.86%    100.00% (Unspecified)
system.caches.L1Cache_Controller.M_I.WB_Ack::total      1180710                       (Unspecified)
system.caches.Directory_Controller.Fetch |        2484      0.20%      0.20% |     1259140     99.80%    100.00% (Unspecified)
system.caches.Directory_Controller.Fetch::total      1261624                       (Unspecified)
system.caches.Directory_Controller.Data  |         138      0.01%      0.01% |     1124707     99.99%    100.00% (Unspecified)
system.caches.Directory_Controller.Data::total      1124845                       (Unspecified)
system.caches.Directory_Controller.Memory_Data |        2484      0.20%      0.20% |     1259135     99.80%    100.00% (Unspecified)
system.caches.Directory_Controller.Memory_Data::total      1261619                       (Unspecified)
system.caches.Directory_Controller.Memory_Ack |         138      0.01%      0.01% |     1124705     99.99%    100.00% (Unspecified)
system.caches.Directory_Controller.Memory_Ack::total      1124843                       (Unspecified)
system.caches.Directory_Controller.CleanReplacement |        2632     46.11%     46.11% |        3076     53.89%    100.00% (Unspecified)
system.caches.Directory_Controller.CleanReplacement::total         5708                       (Unspecified)
system.caches.Directory_Controller.I.Fetch |        2484      0.20%      0.20% |     1259140     99.80%    100.00% (Unspecified)
system.caches.Directory_Controller.I.Fetch::total      1261624                       (Unspecified)
system.caches.Directory_Controller.M.Data |         138      0.01%      0.01% |     1124707     99.99%    100.00% (Unspecified)
system.caches.Directory_Controller.M.Data::total      1124845                       (Unspecified)
system.caches.Directory_Controller.M.CleanReplacement |        2632     46.11%     46.11% |        3076     53.89%    100.00% (Unspecified)
system.caches.Directory_Controller.M.CleanReplacement::total         5708                       (Unspecified)
system.caches.Directory_Controller.IM.Memory_Data |        2484      0.20%      0.20% |     1259135     99.80%    100.00% (Unspecified)
system.caches.Directory_Controller.IM.Memory_Data::total      1261619                       (Unspecified)
system.caches.Directory_Controller.MI.Memory_Ack |         138      0.01%      0.01% |     1124705     99.99%    100.00% (Unspecified)
system.caches.Directory_Controller.MI.Memory_Ack::total      1124843                       (Unspecified)
system.caches.L2Cache_Controller.L1_GET_INSTR |        2170     12.75%     12.75% |        2607     15.32%     28.07% |        1754     10.31%     38.38% |        2280     13.40%     51.77% |        1897     11.15%     62.92% |        1947     11.44%     74.36% |        1981     11.64%     86.00% |        2382     14.00%    100.00% (Unspecified)
system.caches.L2Cache_Controller.L1_GET_INSTR::total        17018                       (Unspecified)
system.caches.L2Cache_Controller.L1_GETS |        3324     14.95%     14.95% |        2768     12.45%     27.40% |        2747     12.35%     39.75% |        2643     11.89%     51.64% |        2597     11.68%     63.32% |        2499     11.24%     74.56% |        2753     12.38%     86.94% |        2904     13.06%    100.00% (Unspecified)
system.caches.L2Cache_Controller.L1_GETS::total        22235                       (Unspecified)
system.caches.L2Cache_Controller.L1_GETX |      160516     12.51%     12.51% |      160446     12.50%     25.01% |      160264     12.49%     37.50% |      160370     12.50%     50.00% |      160357     12.50%     62.50% |      160492     12.51%     75.00% |      160405     12.50%     87.51% |      160325     12.49%    100.00% (Unspecified)
system.caches.L2Cache_Controller.L1_GETX::total      1283175                       (Unspecified)
system.caches.L2Cache_Controller.L1_UPGRADE |         116     19.30%     19.30% |          59      9.82%     29.12% |          56      9.32%     38.44% |          38      6.32%     44.76% |          82     13.64%     58.40% |          68     11.31%     69.72% |         113     18.80%     88.52% |          69     11.48%    100.00% (Unspecified)
system.caches.L2Cache_Controller.L1_UPGRADE::total          601                       (Unspecified)
system.caches.L2Cache_Controller.L1_PUTX |      147734     12.51%     12.51% |      147640     12.50%     25.02% |      147627     12.50%     37.52% |      147582     12.50%     50.02% |      147557     12.50%     62.52% |      147527     12.49%     75.01% |      147485     12.49%     87.50% |      147558     12.50%    100.00% (Unspecified)
system.caches.L2Cache_Controller.L1_PUTX::total      1180710                       (Unspecified)
system.caches.L2Cache_Controller.L2_Replacement |      133831     12.51%     12.51% |      133795     12.50%     25.01% |      133774     12.50%     37.51% |      133732     12.50%     50.01% |      133710     12.49%     62.50% |      133774     12.50%     75.00% |      133737     12.50%     87.50% |      133783     12.50%    100.00% (Unspecified)
system.caches.L2Cache_Controller.L2_Replacement::total      1070136                       (Unspecified)
system.caches.L2Cache_Controller.L2_Replacement_clean |        7529     12.46%     12.46% |        7544     12.49%     24.95% |        7431     12.30%     37.25% |        7544     12.49%     49.73% |        7544     12.49%     62.22% |        7616     12.61%     74.83% |        7583     12.55%     87.38% |        7626     12.62%    100.00% (Unspecified)
system.caches.L2Cache_Controller.L2_Replacement_clean::total        60417                       (Unspecified)
system.caches.L2Cache_Controller.Mem_Data |      157744     12.50%     12.50% |      157723     12.50%     25.00% |      157588     12.49%     37.50% |      157660     12.50%     49.99% |      157635     12.49%     62.49% |      157771     12.51%     74.99% |      157704     12.50%     87.49% |      157793     12.51%    100.00% (Unspecified)
system.caches.L2Cache_Controller.Mem_Data::total      1261618                       (Unspecified)
system.caches.L2Cache_Controller.Mem_Ack |      141360     12.50%     12.50% |      141339     12.50%     25.01% |      141204     12.49%     37.50% |      141276     12.50%     49.99% |      141253     12.49%     62.49% |      141390     12.51%     74.99% |      141320     12.50%     87.49% |      141409     12.51%    100.00% (Unspecified)
system.caches.L2Cache_Controller.Mem_Ack::total      1130551                       (Unspecified)
system.caches.L2Cache_Controller.WB_Data |        7145     12.54%     12.54% |        7046     12.37%     24.91% |        6949     12.20%     37.10% |        7095     12.45%     49.56% |        7093     12.45%     62.00% |        7238     12.70%     74.71% |        7223     12.68%     87.38% |        7188     12.62%    100.00% (Unspecified)
system.caches.L2Cache_Controller.WB_Data::total        56977                       (Unspecified)
system.caches.L2Cache_Controller.WB_Data_clean |          62     17.37%     17.37% |          44     12.32%     29.69% |          49     13.73%     43.42% |          41     11.48%     54.90% |          44     12.32%     67.23% |          33      9.24%     76.47% |          41     11.48%     87.96% |          43     12.04%    100.00% (Unspecified)
system.caches.L2Cache_Controller.WB_Data_clean::total          357                       (Unspecified)
system.caches.L2Cache_Controller.Ack     |        1592     13.20%     13.20% |        1598     13.25%     26.45% |        1467     12.16%     38.61% |        1286     10.66%     49.27% |        1464     12.14%     61.41% |        1556     12.90%     74.31% |        1569     13.01%     87.32% |        1529     12.68%    100.00% (Unspecified)
system.caches.L2Cache_Controller.Ack::total        12061                       (Unspecified)
system.caches.L2Cache_Controller.Ack_all |         509     12.47%     12.47% |         565     13.84%     26.31% |         511     12.52%     38.83% |         472     11.56%     50.39% |         513     12.57%     62.96% |         490     12.00%     74.96% |         506     12.40%     87.36% |         516     12.64%    100.00% (Unspecified)
system.caches.L2Cache_Controller.Ack_all::total         4082                       (Unspecified)
system.caches.L2Cache_Controller.Unblock |         180     18.83%     18.83% |         102     10.67%     29.50% |         107     11.19%     40.69% |          82      8.58%     49.27% |         120     12.55%     61.82% |         103     10.77%     72.59% |         150     15.69%     88.28% |         112     11.72%    100.00% (Unspecified)
system.caches.L2Cache_Controller.Unblock::total          956                       (Unspecified)
system.caches.L2Cache_Controller.Exclusive_Unblock |      162684     12.51%     12.51% |      162555     12.50%     25.02% |      162350     12.49%     37.51% |      162463     12.50%     50.00% |      162459     12.50%     62.50% |      162512     12.50%     75.00% |      162499     12.50%     87.50% |      162508     12.50%    100.00% (Unspecified)
system.caches.L2Cache_Controller.Exclusive_Unblock::total      1300030                       (Unspecified)
system.caches.L2Cache_Controller.NP.L1_GET_INSTR |         287     12.10%     12.10% |         302     12.73%     24.83% |         289     12.18%     37.02% |         275     11.59%     48.61% |         296     12.48%     61.09% |         318     13.41%     74.49% |         309     13.03%     87.52% |         296     12.48%    100.00% (Unspecified)
system.caches.L2Cache_Controller.NP.L1_GET_INSTR::total         2372                       (Unspecified)
system.caches.L2Cache_Controller.NP.L1_GETS |        1350     12.63%     12.63% |        1338     12.52%     25.14% |        1336     12.50%     37.64% |        1357     12.69%     50.33% |        1312     12.27%     62.60% |        1287     12.04%     74.64% |        1293     12.09%     86.74% |        1418     13.26%    100.00% (Unspecified)
system.caches.L2Cache_Controller.NP.L1_GETS::total        10691                       (Unspecified)
system.caches.L2Cache_Controller.NP.L1_GETX |      156107     12.50%     12.50% |      156083     12.50%     25.00% |      155964     12.49%     37.50% |      156028     12.50%     49.99% |      156030     12.50%     62.49% |      156169     12.51%     75.00% |      156102     12.50%     87.50% |      156079     12.50%    100.00% (Unspecified)
system.caches.L2Cache_Controller.NP.L1_GETX::total      1248562                       (Unspecified)
system.caches.L2Cache_Controller.SS.L1_GET_INSTR |        1785     13.14%     13.14% |        2186     16.10%     29.24% |        1354      9.97%     39.21% |        1892     13.93%     53.14% |        1448     10.66%     63.81% |        1498     11.03%     74.84% |        1503     11.07%     85.91% |        1914     14.09%    100.00% (Unspecified)
system.caches.L2Cache_Controller.SS.L1_GET_INSTR::total        13580                       (Unspecified)
system.caches.L2Cache_Controller.SS.L1_GETS |         978     22.19%     22.19% |         543     12.32%     34.51% |         547     12.41%     46.91% |         427      9.69%     56.60% |         419      9.51%     66.11% |         403      9.14%     75.25% |         501     11.37%     86.62% |         590     13.38%    100.00% (Unspecified)
system.caches.L2Cache_Controller.SS.L1_GETS::total         4408                       (Unspecified)
system.caches.L2Cache_Controller.SS.L1_GETX |           7     53.85%     53.85% |           2     15.38%     69.23% |           0      0.00%     69.23% |           1      7.69%     76.92% |           2     15.38%     92.31% |           0      0.00%     92.31% |           1      7.69%    100.00% |           0      0.00%    100.00% (Unspecified)
system.caches.L2Cache_Controller.SS.L1_GETX::total           13                       (Unspecified)
system.caches.L2Cache_Controller.SS.L1_UPGRADE |         116     19.43%     19.43% |          59      9.88%     29.31% |          56      9.38%     38.69% |          38      6.37%     45.06% |          82     13.74%     58.79% |          68     11.39%     70.18% |         109     18.26%     88.44% |          69     11.56%    100.00% (Unspecified)
system.caches.L2Cache_Controller.SS.L1_UPGRADE::total          597                       (Unspecified)
system.caches.L2Cache_Controller.SS.L2_Replacement |           4      6.90%      6.90% |           5      8.62%     15.52% |          11     18.97%     34.48% |          11     18.97%     53.45% |           6     10.34%     63.79% |           5      8.62%     72.41% |          12     20.69%     93.10% |           4      6.90%    100.00% (Unspecified)
system.caches.L2Cache_Controller.SS.L2_Replacement::total           58                       (Unspecified)
system.caches.L2Cache_Controller.SS.L2_Replacement_clean |         381     12.90%     12.90% |         379     12.83%     25.73% |         372     12.59%     38.32% |         341     11.54%     49.86% |         361     12.22%     62.09% |         380     12.86%     74.95% |         371     12.56%     87.51% |         369     12.49%    100.00% (Unspecified)
system.caches.L2Cache_Controller.SS.L2_Replacement_clean::total         2954                       (Unspecified)
system.caches.L2Cache_Controller.M.L1_GET_INSTR |          11     17.74%     17.74% |          10     16.13%     33.87% |           8     12.90%     46.77% |           3      4.84%     51.61% |           4      6.45%     58.06% |           7     11.29%     69.35% |           8     12.90%     82.26% |          11     17.74%    100.00% (Unspecified)
system.caches.L2Cache_Controller.M.L1_GET_INSTR::total           62                       (Unspecified)
system.caches.L2Cache_Controller.M.L1_GETS |         720     12.65%     12.65% |         732     12.86%     25.52% |         710     12.48%     38.00% |         713     12.53%     50.53% |         720     12.65%     63.18% |         678     11.92%     75.10% |         704     12.37%     87.47% |         713     12.53%    100.00% (Unspecified)
system.caches.L2Cache_Controller.M.L1_GETS::total         5690                       (Unspecified)
system.caches.L2Cache_Controller.M.L1_GETX |        3841     12.64%     12.64% |        3811     12.54%     25.18% |        3787     12.46%     37.65% |        3783     12.45%     50.10% |        3799     12.50%     62.60% |        3809     12.54%     75.13% |        3792     12.48%     87.61% |        3764     12.39%    100.00% (Unspecified)
system.caches.L2Cache_Controller.M.L1_GETX::total        30386                       (Unspecified)
system.caches.L2Cache_Controller.M.L2_Replacement |      133591     12.51%     12.51% |      133566     12.50%     25.01% |      133565     12.50%     37.51% |      133509     12.50%     50.01% |      133495     12.50%     62.50% |      133525     12.50%     75.00% |      133497     12.50%     87.50% |      133541     12.50%    100.00% (Unspecified)
system.caches.L2Cache_Controller.M.L2_Replacement::total      1068289                       (Unspecified)
system.caches.L2Cache_Controller.M.L2_Replacement_clean |         233     12.92%     12.92% |         220     12.20%     25.11% |         238     13.19%     38.30% |         241     13.36%     51.66% |         229     12.69%     64.36% |         207     11.47%     75.83% |         203     11.25%     87.08% |         233     12.92%    100.00% (Unspecified)
system.caches.L2Cache_Controller.M.L2_Replacement_clean::total         1804                       (Unspecified)
system.caches.L2Cache_Controller.MT.L1_GETS |         180     18.83%     18.83% |         102     10.67%     29.50% |         107     11.19%     40.69% |          82      8.58%     49.27% |         120     12.55%     61.82% |         103     10.77%     72.59% |         150     15.69%     88.28% |         112     11.72%    100.00% (Unspecified)
system.caches.L2Cache_Controller.MT.L1_GETS::total          956                       (Unspecified)
system.caches.L2Cache_Controller.MT.L1_GETX |         561     13.40%     13.40% |         545     13.01%     26.41% |         511     12.20%     38.61% |         556     13.28%     51.89% |         524     12.51%     64.40% |         509     12.15%     76.55% |         505     12.06%     88.61% |         477     11.39%    100.00% (Unspecified)
system.caches.L2Cache_Controller.MT.L1_GETX::total         4188                       (Unspecified)
system.caches.L2Cache_Controller.MT.L1_PUTX |      147734     12.51%     12.51% |      147640     12.50%     25.02% |      147627     12.50%     37.52% |      147582     12.50%     50.02% |      147557     12.50%     62.52% |      147527     12.49%     75.01% |      147485     12.49%     87.50% |      147558     12.50%    100.00% (Unspecified)
system.caches.L2Cache_Controller.MT.L1_PUTX::total      1180710                       (Unspecified)
system.caches.L2Cache_Controller.MT.L2_Replacement |         236     13.19%     13.19% |         224     12.52%     25.71% |         198     11.07%     36.78% |         212     11.85%     48.63% |         209     11.68%     60.31% |         244     13.64%     73.95% |         228     12.74%     86.70% |         238     13.30%    100.00% (Unspecified)
system.caches.L2Cache_Controller.MT.L2_Replacement::total         1789                       (Unspecified)
system.caches.L2Cache_Controller.MT.L2_Replacement_clean |        6915     12.42%     12.42% |        6945     12.48%     24.90% |        6821     12.25%     37.16% |        6962     12.51%     49.66% |        6954     12.49%     62.16% |        7029     12.63%     74.79% |        7009     12.59%     87.38% |        7024     12.62%    100.00% (Unspecified)
system.caches.L2Cache_Controller.MT.L2_Replacement_clean::total        55659                       (Unspecified)
system.caches.L2Cache_Controller.M_I.L1_GET_INSTR |           5      9.26%      9.26% |           8     14.81%     24.07% |           2      3.70%     27.78% |           2      3.70%     31.48% |           2      3.70%     35.19% |           2      3.70%     38.89% |           7     12.96%     51.85% |          26     48.15%    100.00% (Unspecified)
system.caches.L2Cache_Controller.M_I.L1_GET_INSTR::total           54                       (Unspecified)
system.caches.L2Cache_Controller.M_I.L1_GETS |          11     10.58%     10.58% |          10      9.62%     20.19% |          15     14.42%     34.62% |          18     17.31%     51.92% |           9      8.65%     60.58% |           9      8.65%     69.23% |          15     14.42%     83.65% |          17     16.35%    100.00% (Unspecified)
system.caches.L2Cache_Controller.M_I.L1_GETS::total          104                       (Unspecified)
system.caches.L2Cache_Controller.M_I.L1_GETX |           0      0.00%      0.00% |           5     19.23%     19.23% |           2      7.69%     26.92% |           2      7.69%     34.62% |           2      7.69%     42.31% |           5     19.23%     61.54% |           5     19.23%     80.77% |           5     19.23%    100.00% (Unspecified)
system.caches.L2Cache_Controller.M_I.L1_GETX::total           26                       (Unspecified)
system.caches.L2Cache_Controller.M_I.Mem_Ack |      141360     12.50%     12.50% |      141339     12.50%     25.01% |      141204     12.49%     37.50% |      141276     12.50%     49.99% |      141253     12.49%     62.49% |      141390     12.51%     74.99% |      141320     12.50%     87.49% |      141409     12.51%    100.00% (Unspecified)
system.caches.L2Cache_Controller.M_I.Mem_Ack::total      1130551                       (Unspecified)
system.caches.L2Cache_Controller.MT_I.WB_Data |         221     13.24%     13.24% |         210     12.58%     25.82% |         182     10.90%     36.73% |         197     11.80%     48.53% |         192     11.50%     60.04% |         230     13.78%     73.82% |         216     12.94%     86.76% |         221     13.24%    100.00% (Unspecified)
system.caches.L2Cache_Controller.MT_I.WB_Data::total         1669                       (Unspecified)
system.caches.L2Cache_Controller.MT_I.Ack_all |          15     12.50%     12.50% |          14     11.67%     24.17% |          16     13.33%     37.50% |          15     12.50%     50.00% |          17     14.17%     64.17% |          14     11.67%     75.83% |          12     10.00%     85.83% |          17     14.17%    100.00% (Unspecified)
system.caches.L2Cache_Controller.MT_I.Ack_all::total          120                       (Unspecified)
system.caches.L2Cache_Controller.MCT_I.WB_Data |        6806     12.44%     12.44% |        6778     12.39%     24.83% |        6709     12.26%     37.09% |        6857     12.53%     49.63% |        6825     12.48%     62.10% |        6938     12.68%     74.78% |        6898     12.61%     87.39% |        6898     12.61%    100.00% (Unspecified)
system.caches.L2Cache_Controller.MCT_I.WB_Data::total        54709                       (Unspecified)
system.caches.L2Cache_Controller.MCT_I.Ack_all |         109     11.47%     11.47% |         167     17.58%     29.05% |         112     11.79%     40.84% |         105     11.05%     51.89% |         129     13.58%     65.47% |          91      9.58%     75.05% |         111     11.68%     86.74% |         126     13.26%    100.00% (Unspecified)
system.caches.L2Cache_Controller.MCT_I.Ack_all::total          950                       (Unspecified)
system.caches.L2Cache_Controller.I_I.L1_GETS |           0      0.00%      0.00% |           1    100.00%    100.00% |           0      0.00%    100.00% |           0      0.00%    100.00% |           0      0.00%    100.00% |           0      0.00%    100.00% |           0      0.00%    100.00% |           0      0.00%    100.00% (Unspecified)
system.caches.L2Cache_Controller.I_I.L1_GETS::total            1                       (Unspecified)
system.caches.L2Cache_Controller.I_I.Ack |        1582     13.25%     13.25% |        1593     13.35%     26.60% |        1445     12.11%     38.70% |        1263     10.58%     49.28% |        1451     12.16%     61.44% |        1545     12.94%     74.38% |        1550     12.98%     87.37% |        1508     12.63%    100.00% (Unspecified)
system.caches.L2Cache_Controller.I_I.Ack::total        11937                       (Unspecified)
system.caches.L2Cache_Controller.I_I.Ack_all |         381     12.90%     12.90% |         379     12.83%     25.73% |         372     12.59%     38.32% |         341     11.54%     49.86% |         361     12.22%     62.09% |         380     12.86%     74.95% |         371     12.56%     87.51% |         369     12.49%    100.00% (Unspecified)
system.caches.L2Cache_Controller.I_I.Ack_all::total         2954                       (Unspecified)
system.caches.L2Cache_Controller.S_I.Ack |          10      8.06%      8.06% |           5      4.03%     12.10% |          22     17.74%     29.84% |          23     18.55%     48.39% |          13     10.48%     58.87% |          11      8.87%     67.74% |          19     15.32%     83.06% |          21     16.94%    100.00% (Unspecified)
system.caches.L2Cache_Controller.S_I.Ack::total          124                       (Unspecified)
system.caches.L2Cache_Controller.S_I.Ack_all |           4      6.90%      6.90% |           5      8.62%     15.52% |          11     18.97%     34.48% |          11     18.97%     53.45% |           6     10.34%     63.79% |           5      8.62%     72.41% |          12     20.69%     93.10% |           4      6.90%    100.00% (Unspecified)
system.caches.L2Cache_Controller.S_I.Ack_all::total           58                       (Unspecified)
system.caches.L2Cache_Controller.ISS.L1_GETS |          18     20.00%     20.00% |          15     16.67%     36.67% |          13     14.44%     51.11% |          13     14.44%     65.56% |           7      7.78%     73.33% |           5      5.56%     78.89% |           7      7.78%     86.67% |          12     13.33%    100.00% (Unspecified)
system.caches.L2Cache_Controller.ISS.L1_GETS::total           90                       (Unspecified)
system.caches.L2Cache_Controller.ISS.Mem_Data |        1332     12.56%     12.56% |        1323     12.48%     25.04% |        1323     12.48%     37.52% |        1344     12.68%     50.20% |        1305     12.31%     62.51% |        1282     12.09%     74.61% |        1286     12.13%     86.74% |        1406     13.26%    100.00% (Unspecified)
system.caches.L2Cache_Controller.ISS.Mem_Data::total        10601                       (Unspecified)
system.caches.L2Cache_Controller.IS.L1_GET_INSTR |          82      8.63%      8.63% |         101     10.63%     19.26% |         101     10.63%     29.89% |         108     11.37%     41.26% |         147     15.47%     56.74% |         122     12.84%     69.58% |         154     16.21%     85.79% |         135     14.21%    100.00% (Unspecified)
system.caches.L2Cache_Controller.IS.L1_GET_INSTR::total          950                       (Unspecified)
system.caches.L2Cache_Controller.IS.L1_GETS |          52     27.08%     27.08% |          27     14.06%     41.15% |          19      9.90%     51.04% |          30     15.62%     66.67% |           9      4.69%     71.35% |          10      5.21%     76.56% |          16      8.33%     84.90% |          29     15.10%    100.00% (Unspecified)
system.caches.L2Cache_Controller.IS.L1_GETS::total          192                       (Unspecified)
system.caches.L2Cache_Controller.IS.Mem_Data |         305     12.39%     12.39% |         317     12.88%     25.26% |         302     12.27%     37.53% |         288     11.70%     49.23% |         303     12.31%     61.54% |         323     13.12%     74.65% |         316     12.84%     87.49% |         308     12.51%    100.00% (Unspecified)
system.caches.L2Cache_Controller.IS.Mem_Data::total         2462                       (Unspecified)
system.caches.L2Cache_Controller.IM.Mem_Data |      156107     12.50%     12.50% |      156083     12.50%     25.00% |      155963     12.49%     37.50% |      156028     12.50%     49.99% |      156027     12.50%     62.49% |      156166     12.51%     75.00% |      156102     12.50%     87.50% |      156079     12.50%    100.00% (Unspecified)
system.caches.L2Cache_Controller.IM.Mem_Data::total      1248555                       (Unspecified)
system.caches.L2Cache_Controller.SS_MB.L1_GETS |           0      0.00%      0.00% |           0      0.00%      0.00% |           0      0.00%      0.00% |           0      0.00%      0.00% |           0      0.00%      0.00% |           0      0.00%      0.00% |          38     84.44%     84.44% |           7     15.56%    100.00% (Unspecified)
system.caches.L2Cache_Controller.SS_MB.L1_GETS::total           45                       (Unspecified)
system.caches.L2Cache_Controller.SS_MB.Exclusive_Unblock |         123     20.16%     20.16% |          61     10.00%     30.16% |          56      9.18%     39.34% |          39      6.39%     45.74% |          84     13.77%     59.51% |          68     11.15%     70.66% |         110     18.03%     88.69% |          69     11.31%    100.00% (Unspecified)
system.caches.L2Cache_Controller.SS_MB.Exclusive_Unblock::total          610                       (Unspecified)
system.caches.L2Cache_Controller.MT_MB.L1_GETS |           7     70.00%     70.00% |           0      0.00%     70.00% |           0      0.00%     70.00% |           2     20.00%     90.00% |           0      0.00%     90.00% |           1     10.00%    100.00% |           0      0.00%    100.00% |           0      0.00%    100.00% (Unspecified)
system.caches.L2Cache_Controller.MT_MB.L1_GETS::total           10                       (Unspecified)
system.caches.L2Cache_Controller.MT_MB.Exclusive_Unblock |      162561     12.51%     12.51% |      162494     12.51%     25.02% |      162294     12.49%     37.51% |      162424     12.50%     50.00% |      162375     12.50%     62.50% |      162444     12.50%     75.00% |      162389     12.50%     87.50% |      162439     12.50%    100.00% (Unspecified)
system.caches.L2Cache_Controller.MT_MB.Exclusive_Unblock::total      1299420                       (Unspecified)
system.caches.L2Cache_Controller.MT_IIB.L1_GETS |           7     15.56%     15.56% |           0      0.00%     15.56% |           0      0.00%     15.56% |           1      2.22%     17.78% |           0      0.00%     17.78% |           3      6.67%     24.44% |          28     62.22%     86.67% |           6     13.33%    100.00% (Unspecified)
system.caches.L2Cache_Controller.MT_IIB.L1_GETS::total           45                       (Unspecified)
system.caches.L2Cache_Controller.MT_IIB.WB_Data |         118     19.80%     19.80% |          56      9.40%     29.19% |          58      9.73%     38.93% |          40      6.71%     45.64% |          76     12.75%     58.39% |          70     11.74%     70.13% |         109     18.29%     88.42% |          69     11.58%    100.00% (Unspecified)
system.caches.L2Cache_Controller.MT_IIB.WB_Data::total          596                       (Unspecified)
system.caches.L2Cache_Controller.MT_IIB.WB_Data_clean |          62     17.37%     17.37% |          44     12.32%     29.69% |          49     13.73%     43.42% |          41     11.48%     54.90% |          44     12.32%     67.23% |          33      9.24%     76.47% |          41     11.48%     87.96% |          43     12.04%    100.00% (Unspecified)
system.caches.L2Cache_Controller.MT_IIB.WB_Data_clean::total          357                       (Unspecified)
system.caches.L2Cache_Controller.MT_IIB.Unblock |           0      0.00%      0.00% |           2     66.67%     66.67% |           0      0.00%     66.67% |           1     33.33%    100.00% |           0      0.00%    100.00% |           0      0.00%    100.00% |           0      0.00%    100.00% |           0      0.00%    100.00% (Unspecified)
system.caches.L2Cache_Controller.MT_IIB.Unblock::total            3                       (Unspecified)
system.caches.L2Cache_Controller.MT_IB.WB_Data |           0      0.00%      0.00% |           2     66.67%     66.67% |           0      0.00%     66.67% |           1     33.33%    100.00% |           0      0.00%    100.00% |           0      0.00%    100.00% |           0      0.00%    100.00% |           0      0.00%    100.00% (Unspecified)
system.caches.L2Cache_Controller.MT_IB.WB_Data::total            3                       (Unspecified)
system.caches.L2Cache_Controller.MT_SB.L1_GETS |           1     33.33%     33.33% |           0      0.00%     33.33% |           0      0.00%     33.33% |           0      0.00%     33.33% |           1     33.33%     66.67% |           0      0.00%     66.67% |           1     33.33%    100.00% |           0      0.00%    100.00% (Unspecified)
system.caches.L2Cache_Controller.MT_SB.L1_GETS::total            3                       (Unspecified)
system.caches.L2Cache_Controller.MT_SB.L1_UPGRADE |           0      0.00%      0.00% |           0      0.00%      0.00% |           0      0.00%      0.00% |           0      0.00%      0.00% |           0      0.00%      0.00% |           0      0.00%      0.00% |           4    100.00%    100.00% |           0      0.00%    100.00% (Unspecified)
system.caches.L2Cache_Controller.MT_SB.L1_UPGRADE::total            4                       (Unspecified)
system.caches.L2Cache_Controller.MT_SB.Unblock |         180     18.89%     18.89% |         100     10.49%     29.38% |         107     11.23%     40.61% |          81      8.50%     49.11% |         120     12.59%     61.70% |         103     10.81%     72.51% |         150     15.74%     88.25% |         112     11.75%    100.00% (Unspecified)
system.caches.L2Cache_Controller.MT_SB.Unblock::total          953                       (Unspecified)
system.caches.RequestType.LD.latency_hist_seqr::bucket_size          512                       (Unspecified)
system.caches.RequestType.LD.latency_hist_seqr::max_bucket         5119                       (Unspecified)
system.caches.RequestType.LD.latency_hist_seqr::samples    262775477                       (Unspecified)
system.caches.RequestType.LD.latency_hist_seqr::mean     1.038291                       (Unspecified)
system.caches.RequestType.LD.latency_hist_seqr::gmean     1.008799                       (Unspecified)
system.caches.RequestType.LD.latency_hist_seqr::stdev     4.501522                       (Unspecified)
system.caches.RequestType.LD.latency_hist_seqr |   262769620    100.00%    100.00% |        5327      0.00%    100.00% |         347      0.00%    100.00% |          28      0.00%    100.00% |          92      0.00%    100.00% |          54      0.00%    100.00% |           9      0.00%    100.00% |           0      0.00%    100.00% |           0      0.00%    100.00% |           0      0.00%    100.00% (Unspecified)
system.caches.RequestType.LD.latency_hist_seqr::total    262775477                       (Unspecified)
system.caches.RequestType.LD.hit_latency_hist_seqr::bucket_size            1                       (Unspecified)
system.caches.RequestType.LD.hit_latency_hist_seqr::max_bucket            9                       (Unspecified)
system.caches.RequestType.LD.hit_latency_hist_seqr::samples    262753450                       (Unspecified)
system.caches.RequestType.LD.hit_latency_hist_seqr::mean     1.012088                       (Unspecified)
system.caches.RequestType.LD.hit_latency_hist_seqr::gmean     1.008414                       (Unspecified)
system.caches.RequestType.LD.hit_latency_hist_seqr::stdev     0.109280                       (Unspecified)
system.caches.RequestType.LD.hit_latency_hist_seqr |           0      0.00%      0.00% |   259577204     98.79%     98.79% |     3176246      1.21%    100.00% |           0      0.00%    100.00% |           0      0.00%    100.00% |           0      0.00%    100.00% |           0      0.00%    100.00% |           0      0.00%    100.00% |           0      0.00%    100.00% |           0      0.00%    100.00% (Unspecified)
system.caches.RequestType.LD.hit_latency_hist_seqr::total    262753450                       (Unspecified)
system.caches.RequestType.LD.miss_latency_hist_seqr::bucket_size          512                       (Unspecified)
system.caches.RequestType.LD.miss_latency_hist_seqr::max_bucket         5119                       (Unspecified)
system.caches.RequestType.LD.miss_latency_hist_seqr::samples        22027                       (Unspecified)
system.caches.RequestType.LD.miss_latency_hist_seqr::mean   313.606755                       (Unspecified)
system.caches.RequestType.LD.miss_latency_hist_seqr::gmean    95.630267                       (Unspecified)
system.caches.RequestType.LD.miss_latency_hist_seqr::stdev   379.337229                       (Unspecified)
system.caches.RequestType.LD.miss_latency_hist_seqr |       16170     73.41%     73.41% |        5327     24.18%     97.59% |         347      1.58%     99.17% |          28      0.13%     99.30% |          92      0.42%     99.71% |          54      0.25%     99.96% |           9      0.04%    100.00% |           0      0.00%    100.00% |           0      0.00%    100.00% |           0      0.00%    100.00% (Unspecified)
system.caches.RequestType.LD.miss_latency_hist_seqr::total        22027                       (Unspecified)
system.caches.RequestType.ST.latency_hist_seqr::bucket_size          512                       (Unspecified)
system.caches.RequestType.ST.latency_hist_seqr::max_bucket         5119                       (Unspecified)
system.caches.RequestType.ST.latency_hist_seqr::samples     45421464                       (Unspecified)
system.caches.RequestType.ST.latency_hist_seqr::mean    14.956477                       (Unspecified)
system.caches.RequestType.ST.latency_hist_seqr::gmean     1.258326                       (Unspecified)
system.caches.RequestType.ST.latency_hist_seqr::stdev    97.595062                       (Unspecified)
system.caches.RequestType.ST.latency_hist_seqr |    44947198     98.96%     98.96% |      443077      0.98%     99.93% |       12499      0.03%     99.96% |        5726      0.01%     99.97% |        8587      0.02%     99.99% |        4245      0.01%    100.00% |         125      0.00%    100.00% |           4      0.00%    100.00% |           3      0.00%    100.00% |           0      0.00%    100.00% (Unspecified)
system.caches.RequestType.ST.latency_hist_seqr::total     45421464                       (Unspecified)
system.caches.RequestType.ST.hit_latency_hist_seqr::bucket_size          128                       (Unspecified)
system.caches.RequestType.ST.hit_latency_hist_seqr::max_bucket         1279                       (Unspecified)
system.caches.RequestType.ST.hit_latency_hist_seqr::samples     44139219                       (Unspecified)
system.caches.RequestType.ST.hit_latency_hist_seqr::mean     1.090334                       (Unspecified)
system.caches.RequestType.ST.hit_latency_hist_seqr::gmean     1.064333                       (Unspecified)
system.caches.RequestType.ST.hit_latency_hist_seqr::stdev     0.554254                       (Unspecified)
system.caches.RequestType.ST.hit_latency_hist_seqr |    44139184    100.00%    100.00% |           6      0.00%    100.00% |           9      0.00%    100.00% |           5      0.00%    100.00% |           7      0.00%    100.00% |           2      0.00%    100.00% |           4      0.00%    100.00% |           2      0.00%    100.00% |           0      0.00%    100.00% |           0      0.00%    100.00% (Unspecified)
system.caches.RequestType.ST.hit_latency_hist_seqr::total     44139219                       (Unspecified)
system.caches.RequestType.ST.miss_latency_hist_seqr::bucket_size          512                       (Unspecified)
system.caches.RequestType.ST.miss_latency_hist_seqr::max_bucket         5119                       (Unspecified)
system.caches.RequestType.ST.miss_latency_hist_seqr::samples      1282245                       (Unspecified)
system.caches.RequestType.ST.miss_latency_hist_seqr::mean   492.276117                       (Unspecified)
system.caches.RequestType.ST.miss_latency_hist_seqr::gmean   400.788343                       (Unspecified)
system.caches.RequestType.ST.miss_latency_hist_seqr::stdev   320.838650                       (Unspecified)
system.caches.RequestType.ST.miss_latency_hist_seqr |      807994     63.01%     63.01% |      443062     34.55%     97.57% |       12499      0.97%     98.54% |        5726      0.45%     98.99% |        8587      0.67%     99.66% |        4245      0.33%     99.99% |         125      0.01%    100.00% |           4      0.00%    100.00% |           3      0.00%    100.00% |           0      0.00%    100.00% (Unspecified)
system.caches.RequestType.ST.miss_latency_hist_seqr::total      1282245                       (Unspecified)
system.caches.RequestType.IFETCH.latency_hist_seqr::bucket_size          512                       (Unspecified)
system.caches.RequestType.IFETCH.latency_hist_seqr::max_bucket         5119                       (Unspecified)
system.caches.RequestType.IFETCH.latency_hist_seqr::samples     76762647                       (Unspecified)
system.caches.RequestType.IFETCH.latency_hist_seqr::mean     1.015522                       (Unspecified)
system.caches.RequestType.IFETCH.latency_hist_seqr::gmean     1.000703                       (Unspecified)
system.caches.RequestType.IFETCH.latency_hist_seqr::stdev     2.378257                       (Unspecified)
system.caches.RequestType.IFETCH.latency_hist_seqr |    76762401    100.00%    100.00% |         220      0.00%    100.00% |           8      0.00%    100.00% |           8      0.00%    100.00% |           9      0.00%    100.00% |           1      0.00%    100.00% |           0      0.00%    100.00% |           0      0.00%    100.00% |           0      0.00%    100.00% |           0      0.00%    100.00% (Unspecified)
system.caches.RequestType.IFETCH.latency_hist_seqr::total     76762647                       (Unspecified)
system.caches.RequestType.IFETCH.hit_latency_hist_seqr::bucket_size            1                       (Unspecified)
system.caches.RequestType.IFETCH.hit_latency_hist_seqr::max_bucket            9                       (Unspecified)
system.caches.RequestType.IFETCH.hit_latency_hist_seqr::samples     76745683                       (Unspecified)
system.caches.RequestType.IFETCH.hit_latency_hist_seqr::mean     1.000000                       (Unspecified)
system.caches.RequestType.IFETCH.hit_latency_hist_seqr::gmean     1.000000                       (Unspecified)
system.caches.RequestType.IFETCH.hit_latency_hist_seqr::stdev     0.000114                       (Unspecified)
system.caches.RequestType.IFETCH.hit_latency_hist_seqr |           0      0.00%      0.00% |    76745682    100.00%    100.00% |           1      0.00%    100.00% |           0      0.00%    100.00% |           0      0.00%    100.00% |           0      0.00%    100.00% |           0      0.00%    100.00% |           0      0.00%    100.00% |           0      0.00%    100.00% |           0      0.00%    100.00% (Unspecified)
system.caches.RequestType.IFETCH.hit_latency_hist_seqr::total     76745683                       (Unspecified)
system.caches.RequestType.IFETCH.miss_latency_hist_seqr::bucket_size          512                       (Unspecified)
system.caches.RequestType.IFETCH.miss_latency_hist_seqr::max_bucket         5119                       (Unspecified)
system.caches.RequestType.IFETCH.miss_latency_hist_seqr::samples        16964                       (Unspecified)
system.caches.RequestType.IFETCH.miss_latency_hist_seqr::mean    71.237149                       (Unspecified)
system.caches.RequestType.IFETCH.miss_latency_hist_seqr::gmean    24.014082                       (Unspecified)
system.caches.RequestType.IFETCH.miss_latency_hist_seqr::stdev   143.746721                       (Unspecified)
system.caches.RequestType.IFETCH.miss_latency_hist_seqr |       16718     98.55%     98.55% |         220      1.30%     99.85% |           8      0.05%     99.89% |           8      0.05%     99.94% |           9      0.05%     99.99% |           1      0.01%    100.00% |           0      0.00%    100.00% |           0      0.00%    100.00% |           0      0.00%    100.00% |           0      0.00%    100.00% (Unspecified)
system.caches.RequestType.IFETCH.miss_latency_hist_seqr::total        16964                       (Unspecified)
system.caches.RequestType.RMW_Read.latency_hist_seqr::bucket_size          512                       (Unspecified)
system.caches.RequestType.RMW_Read.latency_hist_seqr::max_bucket         5119                       (Unspecified)
system.caches.RequestType.RMW_Read.latency_hist_seqr::samples        23521                       (Unspecified)
system.caches.RequestType.RMW_Read.latency_hist_seqr::mean    17.213384                       (Unspecified)
system.caches.RequestType.RMW_Read.latency_hist_seqr::gmean     1.312420                       (Unspecified)
system.caches.RequestType.RMW_Read.latency_hist_seqr::stdev   101.245142                       (Unspecified)
system.caches.RequestType.RMW_Read.latency_hist_seqr |       23231     98.77%     98.77% |         277      1.18%     99.94% |           5      0.02%     99.97% |           2      0.01%     99.97% |           5      0.02%    100.00% |           1      0.00%    100.00% |           0      0.00%    100.00% |           0      0.00%    100.00% |           0      0.00%    100.00% |           0      0.00%    100.00% (Unspecified)
system.caches.RequestType.RMW_Read.latency_hist_seqr::total        23521                       (Unspecified)
system.caches.RequestType.RMW_Read.hit_latency_hist_seqr::bucket_size          128                       (Unspecified)
system.caches.RequestType.RMW_Read.hit_latency_hist_seqr::max_bucket         1279                       (Unspecified)
system.caches.RequestType.RMW_Read.hit_latency_hist_seqr::samples        22595                       (Unspecified)
system.caches.RequestType.RMW_Read.hit_latency_hist_seqr::mean     3.404204                       (Unspecified)
system.caches.RequestType.RMW_Read.hit_latency_hist_seqr::gmean     1.077194                       (Unspecified)
system.caches.RequestType.RMW_Read.hit_latency_hist_seqr::stdev    35.291610                       (Unspecified)
system.caches.RequestType.RMW_Read.hit_latency_hist_seqr |       22482     99.50%     99.50% |          14      0.06%     99.56% |          32      0.14%     99.70% |          31      0.14%     99.84% |          13      0.06%     99.90% |          16      0.07%     99.97% |           6      0.03%    100.00% |           1      0.00%    100.00% |           0      0.00%    100.00% |           0      0.00%    100.00% (Unspecified)
system.caches.RequestType.RMW_Read.hit_latency_hist_seqr::total        22595                       (Unspecified)
system.caches.RequestType.RMW_Read.miss_latency_hist_seqr::bucket_size          512                       (Unspecified)
system.caches.RequestType.RMW_Read.miss_latency_hist_seqr::max_bucket         5119                       (Unspecified)
system.caches.RequestType.RMW_Read.miss_latency_hist_seqr::samples          926                       (Unspecified)
system.caches.RequestType.RMW_Read.miss_latency_hist_seqr::mean   354.166307                       (Unspecified)
system.caches.RequestType.RMW_Read.miss_latency_hist_seqr::gmean   162.603343                       (Unspecified)
system.caches.RequestType.RMW_Read.miss_latency_hist_seqr::stdev   334.516358                       (Unspecified)
system.caches.RequestType.RMW_Read.miss_latency_hist_seqr |         672     72.57%     72.57% |         241     26.03%     98.60% |           5      0.54%     99.14% |           2      0.22%     99.35% |           5      0.54%     99.89% |           1      0.11%    100.00% |           0      0.00%    100.00% |           0      0.00%    100.00% |           0      0.00%    100.00% |           0      0.00%    100.00% (Unspecified)
system.caches.RequestType.RMW_Read.miss_latency_hist_seqr::total          926                       (Unspecified)
system.caches.RequestType.Locked_RMW_Read.latency_hist_seqr::bucket_size          128                       (Unspecified)
system.caches.RequestType.Locked_RMW_Read.latency_hist_seqr::max_bucket         1279                       (Unspecified)
system.caches.RequestType.Locked_RMW_Read.latency_hist_seqr::samples         4311                       (Unspecified)
system.caches.RequestType.Locked_RMW_Read.latency_hist_seqr::mean    11.940153                       (Unspecified)
system.caches.RequestType.Locked_RMW_Read.latency_hist_seqr::gmean     1.572526                       (Unspecified)
system.caches.RequestType.Locked_RMW_Read.latency_hist_seqr::stdev    69.365394                       (Unspecified)
system.caches.RequestType.Locked_RMW_Read.latency_hist_seqr |        4233     98.19%     98.19% |           5      0.12%     98.31% |          32      0.74%     99.05% |          13      0.30%     99.35% |          14      0.32%     99.68% |           4      0.09%     99.77% |           8      0.19%     99.95% |           1      0.02%     99.98% |           0      0.00%     99.98% |           1      0.02%    100.00% (Unspecified)
[...]
system.o3Cpu7.iew.predictedTakenIncorrect         2494                       # Number of branches that were predicted taken incorrectly (Count)
system.o3Cpu7.iew.predictedNotTakenIncorrect         1368                       # Number of branches that were predicted not taken incorrectly (Count)
system.o3Cpu7.iew.branchMispredicts              3862                       # Number of branch mispredicts detected at execute (Count)
system.o3Cpu7.iew.instsToCommit             221397209                       # Cumulative count of insts sent to commit (Count)
system.o3Cpu7.iew.writebackCount            221396680                       # Cumulative count of insts written-back (Count)
system.o3Cpu7.iew.producerInst              200492203                       # Number of instructions producing a value (Count)
system.o3Cpu7.iew.consumerInst              351383429                       # Number of instructions consuming a value (Count)
system.o3Cpu7.iew.wbRate                     2.299890                       # Insts written-back per cycle ((Count/Cycle))
system.o3Cpu7.iew.wbFanout                   0.570580                       # Average fanout of values written-back ((Count/Count))
system.o3Cpu7.interrupts.clk_domain.clock         3200                       # Clock period in ticks (Tick)
system.o3Cpu7.lsq0.forwLoads                  3679934                       # Number of loads that had data forwarded from stores (Count)
system.o3Cpu7.lsq0.squashedLoads                12541                       # Number of loads squashed (Count)
system.o3Cpu7.lsq0.ignoredResponses               127                       # Number of memory responses ignored because the instruction is squashed (Count)
system.o3Cpu7.lsq0.memOrderViolation              677                       # Number of memory ordering violations (Count)
system.o3Cpu7.lsq0.squashedStores                8218                       # Number of stores squashed (Count)
system.o3Cpu7.lsq0.rescheduledLoads                32                       # Number of loads that were rescheduled (Count)
system.o3Cpu7.lsq0.blockedByCache                1306                       # Number of times an access to memory failed due to the cache being blocked (Count)
system.o3Cpu7.lsq0.loadToUse::samples        50335214                       # Distribution of cycle latency between the first time a load is issued and its completion (Unspecified)
system.o3Cpu7.lsq0.loadToUse::mean           3.004901                       # Distribution of cycle latency between the first time a load is issued and its completion (Unspecified)
system.o3Cpu7.lsq0.loadToUse::stdev          7.893334                       # Distribution of cycle latency between the first time a load is issued and its completion (Unspecified)
system.o3Cpu7.lsq0.loadToUse::0-9            50327879     99.99%     99.99% # Distribution of cycle latency between the first time a load is issued and its completion (Unspecified)
system.o3Cpu7.lsq0.loadToUse::10-19              1456      0.00%     99.99% # Distribution of cycle latency between the first time a load is issued and its completion (Unspecified)
system.o3Cpu7.lsq0.loadToUse::20-29               450      0.00%     99.99% # Distribution of cycle latency between the first time a load is issued and its completion (Unspecified)
system.o3Cpu7.lsq0.loadToUse::30-39               113      0.00%     99.99% # Distribution of cycle latency between the first time a load is issued and its completion (Unspecified)
system.o3Cpu7.lsq0.loadToUse::40-49                91      0.00%     99.99% # Distribution of cycle latency between the first time a load is issued and its completion (Unspecified)
system.o3Cpu7.lsq0.loadToUse::50-59                49      0.00%     99.99% # Distribution of cycle latency between the first time a load is issued and its completion (Unspecified)
system.o3Cpu7.lsq0.loadToUse::60-69                44      0.00%     99.99% # Distribution of cycle latency between the first time a load is issued and its completion (Unspecified)
system.o3Cpu7.lsq0.loadToUse::70-79                40      0.00%     99.99% # Distribution of cycle latency between the first time a load is issued and its completion (Unspecified)
system.o3Cpu7.lsq0.loadToUse::80-89                27      0.00%     99.99% # Distribution of cycle latency between the first time a load is issued and its completion (Unspecified)
system.o3Cpu7.lsq0.loadToUse::90-99                72      0.00%     99.99% # Distribution of cycle latency between the first time a load is issued and its completion (Unspecified)
system.o3Cpu7.lsq0.loadToUse::100-109              45      0.00%     99.99% # Distribution of cycle latency between the first time a load is issued and its completion (Unspecified)
system.o3Cpu7.lsq0.loadToUse::110-119              40      0.00%     99.99% # Distribution of cycle latency between the first time a load is issued and its completion (Unspecified)
system.o3Cpu7.lsq0.loadToUse::120-129              23      0.00%     99.99% # Distribution of cycle latency between the first time a load is issued and its completion (Unspecified)
system.o3Cpu7.lsq0.loadToUse::130-139              25      0.00%     99.99% # Distribution of cycle latency between the first time a load is issued and its completion (Unspecified)
system.o3Cpu7.lsq0.loadToUse::140-149              21      0.00%     99.99% # Distribution of cycle latency between the first time a load is issued and its completion (Unspecified)
system.o3Cpu7.lsq0.loadToUse::150-159              14      0.00%     99.99% # Distribution of cycle latency between the first time a load is issued and its completion (Unspecified)
system.o3Cpu7.lsq0.loadToUse::160-169              11      0.00%     99.99% # Distribution of cycle latency between the first time a load is issued and its completion (Unspecified)
system.o3Cpu7.lsq0.loadToUse::170-179              26      0.00%     99.99% # Distribution of cycle latency between the first time a load is issued and its completion (Unspecified)
system.o3Cpu7.lsq0.loadToUse::180-189              22      0.00%     99.99% # Distribution of cycle latency between the first time a load is issued and its completion (Unspecified)
system.o3Cpu7.lsq0.loadToUse::190-199              28      0.00%     99.99% # Distribution of cycle latency between the first time a load is issued and its completion (Unspecified)
system.o3Cpu7.lsq0.loadToUse::200-209              22      0.00%     99.99% # Distribution of cycle latency between the first time a load is issued and its completion (Unspecified)
system.o3Cpu7.lsq0.loadToUse::210-219              23      0.00%     99.99% # Distribution of cycle latency between the first time a load is issued and its completion (Unspecified)
system.o3Cpu7.lsq0.loadToUse::220-229              50      0.00%     99.99% # Distribution of cycle latency between the first time a load is issued and its completion (Unspecified)
system.o3Cpu7.lsq0.loadToUse::230-239              33      0.00%     99.99% # Distribution of cycle latency between the first time a load is issued and its completion (Unspecified)
system.o3Cpu7.lsq0.loadToUse::240-249              26      0.00%     99.99% # Distribution of cycle latency between the first time a load is issued and its completion (Unspecified)
system.o3Cpu7.lsq0.loadToUse::250-259              18      0.00%     99.99% # Distribution of cycle latency between the first time a load is issued and its completion (Unspecified)
system.o3Cpu7.lsq0.loadToUse::260-269              24      0.00%     99.99% # Distribution of cycle latency between the first time a load is issued and its completion (Unspecified)
system.o3Cpu7.lsq0.loadToUse::270-279              17      0.00%     99.99% # Distribution of cycle latency between the first time a load is issued and its completion (Unspecified)
system.o3Cpu7.lsq0.loadToUse::280-289              30      0.00%     99.99% # Distribution of cycle latency between the first time a load is issued and its completion (Unspecified)
system.o3Cpu7.lsq0.loadToUse::290-299              55      0.00%     99.99% # Distribution of cycle latency between the first time a load is issued and its completion (Unspecified)
system.o3Cpu7.lsq0.loadToUse::overflows          4440      0.01%    100.00% # Distribution of cycle latency between the first time a load is issued and its completion (Unspecified)
system.o3Cpu7.lsq0.loadToUse::min_value             2                       # Distribution of cycle latency between the first time a load is issued and its completion (Unspecified)
system.o3Cpu7.lsq0.loadToUse::max_value          3554                       # Distribution of cycle latency between the first time a load is issued and its completion (Unspecified)
system.o3Cpu7.lsq0.loadToUse::total          50335214                       # Distribution of cycle latency between the first time a load is issued and its completion (Unspecified)
system.o3Cpu7.mmu.dtb.rdAccesses             50343912                       # TLB accesses on read requests (Count)
system.o3Cpu7.mmu.dtb.wrAccesses              5600569                       # TLB accesses on write requests (Count)
system.o3Cpu7.mmu.dtb.rdMisses                   1194                       # TLB misses on read requests (Count)
system.o3Cpu7.mmu.dtb.wrMisses                    462                       # TLB misses on write requests (Count)
system.o3Cpu7.mmu.dtb.walker.power_state.pwrStateResidencyTicks::UNDEFINED  22298195200                       # Cumulative time (in ticks) in various power states (Tick)
system.o3Cpu7.mmu.itb.rdAccesses                    0                       # TLB accesses on read requests (Count)
system.o3Cpu7.mmu.itb.wrAccesses              9387942                       # TLB accesses on write requests (Count)
system.o3Cpu7.mmu.itb.rdMisses                      0                       # TLB misses on read requests (Count)
system.o3Cpu7.mmu.itb.wrMisses                     51                       # TLB misses on write requests (Count)
system.o3Cpu7.mmu.itb.walker.power_state.pwrStateResidencyTicks::UNDEFINED  22298195200                       # Cumulative time (in ticks) in various power states (Tick)
system.o3Cpu7.power_state.numTransitions            6                       # Number of power state transitions (Count)
system.o3Cpu7.power_state.ticksClkGated::samples            3                       # Distribution of time spent in the clock gated state (Tick)
system.o3Cpu7.power_state.ticksClkGated::mean    677112600                       # Distribution of time spent in the clock gated state (Tick)
system.o3Cpu7.power_state.ticksClkGated::stdev 445543105.207162                       # Distribution of time spent in the clock gated state (Tick)
system.o3Cpu7.power_state.ticksClkGated::1000-5e+10            3    100.00%    100.00% # Distribution of time spent in the clock gated state (Tick)
system.o3Cpu7.power_state.ticksClkGated::min_value    168255600                       # Distribution of time spent in the clock gated state (Tick)
system.o3Cpu7.power_state.ticksClkGated::max_value    997169400                       # Distribution of time spent in the clock gated state (Tick)
system.o3Cpu7.power_state.ticksClkGated::total            3                       # Distribution of time spent in the clock gated state (Tick)
system.o3Cpu7.power_state.pwrStateResidencyTicks::ON   9139884400                       # Cumulative time (in ticks) in various power states (Tick)
system.o3Cpu7.power_state.pwrStateResidencyTicks::CLK_GATED   2031337800                       # Cumulative time (in ticks) in various power states (Tick)
system.o3Cpu7.power_state.pwrStateResidencyTicks::OFF  11126973000                       # Cumulative time (in ticks) in various power states (Tick)
system.o3Cpu7.rename.squashCycles                4304                       # Number of cycles rename is squashing (Cycle)
system.o3Cpu7.rename.idleCycles               7860044                       # Number of cycles rename is idle (Cycle)
system.o3Cpu7.rename.blockCycles             22594149                       # Number of cycles rename is blocking (Cycle)
system.o3Cpu7.rename.serializeStallCycles       160081                       # count of cycles rename stalled for serializing inst (Cycle)
system.o3Cpu7.rename.runCycles               14811518                       # Number of cycles rename is running (Cycle)
system.o3Cpu7.rename.unblockCycles           50690124                       # Number of cycles rename is unblocking (Cycle)
system.o3Cpu7.rename.renamedInsts           221455963                       # Number of instructions processed by rename (Count)
system.o3Cpu7.rename.ROBFullEvents               1075                       # Number of times rename has blocked due to ROB full (Count)
system.o3Cpu7.rename.IQFullEvents             2342092                       # Number of times rename has blocked due to IQ full (Count)
system.o3Cpu7.rename.LQFullEvents             1837275                       # Number of times rename has blocked due to LQ full (Count)
system.o3Cpu7.rename.SQFullEvents            46047068                       # Number of times rename has blocked due to SQ full (Count)
system.o3Cpu7.rename.renamedOperands        241770877                       # Number of destination operands rename has renamed (Count)
system.o3Cpu7.rename.lookups                575311633                       # Number of register rename lookups that rename has made (Count)
system.o3Cpu7.rename.intLookups              85941781                       # Number of integer rename lookups (Count)
system.o3Cpu7.rename.fpLookups              314469521                       # Number of floating rename lookups (Count)
system.o3Cpu7.rename.committedMaps          241609954                       # Number of HB maps that are committed (Count)
system.o3Cpu7.rename.undoneMaps                160923                       # Number of HB maps that are undone due to squashing (Count)
system.o3Cpu7.rename.serializing                 1455                       # count of serializing insts renamed (Count)
system.o3Cpu7.rename.tempSerializing             1517                       # count of temporary serializing insts renamed (Count)
system.o3Cpu7.rename.skidInsts               26860244                       # count of insts added to the skid buffer (Count)
system.o3Cpu7.rob.reads                     309993128                       # The number of ROB reads (Count)
system.o3Cpu7.rob.writes                    442889761                       # The number of ROB writes (Count)
system.o3Cpu7.thread_0.numInsts             105778082                       # Number of Instructions committed (Count)
system.o3Cpu7.thread_0.numOps               221346655                       # Number of Ops committed (Count)
system.o3Cpu7.thread_0.numMemRefs                   0                       # Number of Memory References (Count)
system.pc.bad_addr.power_state.pwrStateResidencyTicks::UNDEFINED  22298195200                       # Cumulative time (in ticks) in various power states (Tick)
system.pc.com_1.power_state.pwrStateResidencyTicks::UNDEFINED  22298195200                       # Cumulative time (in ticks) in various power states (Tick)
system.pc.default_bus.power_state.pwrStateResidencyTicks::UNDEFINED  22298195200                       # Cumulative time (in ticks) in various power states (Tick)
system.pc.empty_isa.power_state.pwrStateResidencyTicks::UNDEFINED  22298195200                       # Cumulative time (in ticks) in various power states (Tick)
system.pc.fake_com_2.power_state.pwrStateResidencyTicks::UNDEFINED  22298195200                       # Cumulative time (in ticks) in various power states (Tick)
system.pc.fake_com_3.power_state.pwrStateResidencyTicks::UNDEFINED  22298195200                       # Cumulative time (in ticks) in various power states (Tick)
system.pc.fake_com_4.power_state.pwrStateResidencyTicks::UNDEFINED  22298195200                       # Cumulative time (in ticks) in various power states (Tick)
system.pc.fake_floppy.power_state.pwrStateResidencyTicks::UNDEFINED  22298195200                       # Cumulative time (in ticks) in various power states (Tick)
system.pc.pci_host.power_state.pwrStateResidencyTicks::UNDEFINED  22298195200                       # Cumulative time (in ticks) in various power states (Tick)
system.pc.south_bridge.cmos.power_state.pwrStateResidencyTicks::UNDEFINED  22298195200                       # Cumulative time (in ticks) in various power states (Tick)
system.pc.south_bridge.dma1.power_state.pwrStateResidencyTicks::UNDEFINED  22298195200                       # Cumulative time (in ticks) in various power states (Tick)
system.pc.south_bridge.ide.disks0.IdeDisk.dmaReadFullPages            0                       # Number of full page size DMA reads (not PRD). (Count)
system.pc.south_bridge.ide.disks0.IdeDisk.dmaReadBytes            0                       # Number of bytes transfered via DMA reads (not PRD). (Byte)
system.pc.south_bridge.ide.disks0.IdeDisk.dmaReadTxs            0                       # Number of DMA read transactions (not PRD). (Count)
system.pc.south_bridge.ide.disks0.IdeDisk.dmaWriteFullPages            0                       # Number of full page size DMA writes. (Count)
system.pc.south_bridge.ide.disks0.IdeDisk.dmaWriteBytes            0                       # Number of bytes transfered via DMA writes. (Byte)
system.pc.south_bridge.ide.disks0.IdeDisk.dmaWriteTxs            0                       # Number of DMA write transactions. (Count)
system.pc.south_bridge.ide.disks1.IdeDisk.dmaReadFullPages            0                       # Number of full page size DMA reads (not PRD). (Count)
system.pc.south_bridge.ide.disks1.IdeDisk.dmaReadBytes            0                       # Number of bytes transfered via DMA reads (not PRD). (Byte)
system.pc.south_bridge.ide.disks1.IdeDisk.dmaReadTxs            0                       # Number of DMA read transactions (not PRD). (Count)
system.pc.south_bridge.ide.disks1.IdeDisk.dmaWriteFullPages            0                       # Number of full page size DMA writes. (Count)
system.pc.south_bridge.ide.disks1.IdeDisk.dmaWriteBytes            0                       # Number of bytes transfered via DMA writes. (Byte)
system.pc.south_bridge.ide.disks1.IdeDisk.dmaWriteTxs            0                       # Number of DMA write transactions. (Count)
system.pc.south_bridge.ide.power_state.pwrStateResidencyTicks::UNDEFINED  22298195200                       # Cumulative time (in ticks) in various power states (Tick)
system.pc.south_bridge.io_apic.power_state.pwrStateResidencyTicks::UNDEFINED  22298195200                       # Cumulative time (in ticks) in various power states (Tick)
system.pc.south_bridge.keyboard.power_state.pwrStateResidencyTicks::UNDEFINED  22298195200                       # Cumulative time (in ticks) in various power states (Tick)
system.pc.south_bridge.pic1.power_state.pwrStateResidencyTicks::UNDEFINED  22298195200                       # Cumulative time (in ticks) in various power states (Tick)
system.pc.south_bridge.pic2.power_state.pwrStateResidencyTicks::UNDEFINED  22298195200                       # Cumulative time (in ticks) in various power states (Tick)
system.pc.south_bridge.pit.power_state.pwrStateResidencyTicks::UNDEFINED  22298195200                       # Cumulative time (in ticks) in various power states (Tick)
system.pc.south_bridge.speaker.power_state.pwrStateResidencyTicks::UNDEFINED  22298195200                       # Cumulative time (in ticks) in various power states (Tick)
system.workload.inst.arm                            0                       # number of arm instructions executed (Count)
system.workload.inst.quiesce                        0                       # number of quiesce instructions executed (Count)

---------- End Simulation Statistics   ----------
