
---------- Begin Simulation Statistics ----------
simSeconds                                   0.044972                       # Number of seconds simulated (Second)
simTicks                                  44971794640                       # Number of ticks simulated (Tick)
finalTick                                155103191815800                       # Number of ticks from beginning of simulation (restored from checkpoints and never reset) (Tick)
simFreq                                  1000000000000                       # The number of ticks per simulated second ((Tick/Second))
hostSeconds                                   6026.08                       # Real time elapsed on the host (Second)
hostTickRate                                  7462861                       # The number of ticks simulated per host second (ticks/s) ((Tick/Second))
hostMemory                                   19846232                       # Number of bytes of host memory used (Byte)
simInsts                                    182391286                       # Number of instructions simulated (Count)
simOps                                      368345912                       # Number of ops (including micro ops) simulated (Count)
hostInstRate                                    30267                       # Simulator instruction rate (inst/s) ((Count/Second))
hostOpRate                                      61125                       # Simulator op (including micro ops) rate (op/s) ((Count/Second))
system.caches.delayHistogram::bucket_size            8                       # delay histogram for all message (Unspecified)
system.caches.delayHistogram::max_bucket           79                       # delay histogram for all message (Unspecified)
system.caches.delayHistogram::samples        40620981                       # delay histogram for all message (Unspecified)
system.caches.delayHistogram::mean           0.275565                       # delay histogram for all message (Unspecified)
system.caches.delayHistogram::stdev          1.518932                       # delay histogram for all message (Unspecified)
system.caches.delayHistogram             |    39454372     97.13%     97.13% |     1123277      2.77%     99.89% |       41653      0.10%    100.00% |        1072      0.00%    100.00% |         283      0.00%    100.00% |         119      0.00%    100.00% |         103      0.00%    100.00% |          60      0.00%    100.00% |          42      0.00%    100.00% |           0      0.00%    100.00% # delay histogram for all message (Unspecified)
system.caches.delayHistogram::total          40620981                       # delay histogram for all message (Unspecified)
system.caches.m_outstandReqHistSeqr::bucket_size            2                       (Unspecified)
system.caches.m_outstandReqHistSeqr::max_bucket           19                       (Unspecified)
system.caches.m_outstandReqHistSeqr::samples    131432840                       (Unspecified)
system.caches.m_outstandReqHistSeqr::mean     2.717314                       (Unspecified)
system.caches.m_outstandReqHistSeqr::gmean     2.301254                       (Unspecified)
system.caches.m_outstandReqHistSeqr::stdev     1.540472                       (Unspecified)
system.caches.m_outstandReqHistSeqr      |    34056357     25.91%     25.91% |    66093837     50.29%     76.20% |    25124374     19.12%     95.31% |     4920316      3.74%     99.06% |     1215426      0.92%     99.98% |       20697      0.02%    100.00% |        1097      0.00%    100.00% |         626      0.00%    100.00% |         110      0.00%    100.00% |           0      0.00%    100.00% (Unspecified)
system.caches.m_outstandReqHistSeqr::total    131432840                       (Unspecified)
system.caches.m_latencyHistSeqr::bucket_size          512                       (Unspecified)
system.caches.m_latencyHistSeqr::max_bucket         5119                       (Unspecified)
system.caches.m_latencyHistSeqr::samples    131448311                       (Unspecified)
system.caches.m_latencyHistSeqr::mean       22.123077                       (Unspecified)
system.caches.m_latencyHistSeqr::gmean       1.310319                       (Unspecified)
system.caches.m_latencyHistSeqr::stdev     111.345289                       (Unspecified)
system.caches.m_latencyHistSeqr          |   130042113     98.93%     98.93% |     1313992      1.00%     99.93% |       14381      0.01%     99.94% |       12753      0.01%     99.95% |       55730      0.04%     99.99% |        9053      0.01%    100.00% |         225      0.00%    100.00% |          61      0.00%    100.00% |           3      0.00%    100.00% |           0      0.00%    100.00% (Unspecified)
system.caches.m_latencyHistSeqr::total      131448311                       (Unspecified)
system.caches.m_hitLatencyHistSeqr::bucket_size          512                       (Unspecified)
system.caches.m_hitLatencyHistSeqr::max_bucket         5119                       (Unspecified)
system.caches.m_hitLatencyHistSeqr::samples    125595838                       (Unspecified)
system.caches.m_hitLatencyHistSeqr::mean     1.002732                       (Unspecified)
system.caches.m_hitLatencyHistSeqr::gmean     1.000153                       (Unspecified)
system.caches.m_hitLatencyHistSeqr::stdev     1.309527                       (Unspecified)
system.caches.m_hitLatencyHistSeqr       |   125595652    100.00%    100.00% |         169      0.00%    100.00% |           4      0.00%    100.00% |           5      0.00%    100.00% |           7      0.00%    100.00% |           1      0.00%    100.00% |           0      0.00%    100.00% |           0      0.00%    100.00% |           0      0.00%    100.00% |           0      0.00%    100.00% (Unspecified)
system.caches.m_hitLatencyHistSeqr::total    125595838                       (Unspecified)
system.caches.m_missLatencyHistSeqr::bucket_size          512                       (Unspecified)
system.caches.m_missLatencyHistSeqr::max_bucket         5119                       (Unspecified)
system.caches.m_missLatencyHistSeqr::samples      5852473                       (Unspecified)
system.caches.m_missLatencyHistSeqr::mean   475.372052                       (Unspecified)
system.caches.m_missLatencyHistSeqr::gmean   431.412392                       (Unspecified)
system.caches.m_missLatencyHistSeqr::stdev   251.820439                       (Unspecified)
system.caches.m_missLatencyHistSeqr      |     4446461     75.98%     75.98% |     1313823     22.45%     98.42% |       14377      0.25%     98.67% |       12748      0.22%     98.89% |       55723      0.95%     99.84% |        9052      0.15%    100.00% |         225      0.00%    100.00% |          61      0.00%    100.00% |           3      0.00%    100.00% |           0      0.00%    100.00% (Unspecified)
system.caches.m_missLatencyHistSeqr::total      5852473                       (Unspecified)
system.caches.delayVCHist.vnet_0::bucket_size            8                       # delay histogram for vnet_0 (Unspecified)
system.caches.delayVCHist.vnet_0::max_bucket           79                       # delay histogram for vnet_0 (Unspecified)
system.caches.delayVCHist.vnet_0::samples     17203596                       # delay histogram for vnet_0 (Unspecified)
system.caches.delayVCHist.vnet_0::mean       0.612833                       # delay histogram for vnet_0 (Unspecified)
system.caches.delayVCHist.vnet_0::stdev      2.247636                       # delay histogram for vnet_0 (Unspecified)
system.caches.delayVCHist.vnet_0         |    16042964     93.25%     93.25% |     1117603      6.50%     99.75% |       41354      0.24%     99.99% |        1070      0.01%    100.00% |         282      0.00%    100.00% |         118      0.00%    100.00% |         103      0.00%    100.00% |          60      0.00%    100.00% |          42      0.00%    100.00% |           0      0.00%    100.00% # delay histogram for vnet_0 (Unspecified)
system.caches.delayVCHist.vnet_0::total      17203596                       # delay histogram for vnet_0 (Unspecified)
system.caches.delayVCHist.vnet_1::bucket_size            8                       # delay histogram for vnet_1 (Unspecified)
system.caches.delayVCHist.vnet_1::max_bucket           79                       # delay histogram for vnet_1 (Unspecified)
system.caches.delayVCHist.vnet_1::samples     23195759                       # delay histogram for vnet_1 (Unspecified)
system.caches.delayVCHist.vnet_1::mean       0.028054                       # delay histogram for vnet_1 (Unspecified)
system.caches.delayVCHist.vnet_1::stdev      0.383630                       # delay histogram for vnet_1 (Unspecified)
system.caches.delayVCHist.vnet_1         |    23189782     99.97%     99.97% |        5674      0.02%    100.00% |         299      0.00%    100.00% |           2      0.00%    100.00% |           1      0.00%    100.00% |           1      0.00%    100.00% |           0      0.00%    100.00% |           0      0.00%    100.00% |           0      0.00%    100.00% |           0      0.00%    100.00% # delay histogram for vnet_1 (Unspecified)
system.caches.delayVCHist.vnet_1::total      23195759                       # delay histogram for vnet_1 (Unspecified)
system.caches.delayVCHist.vnet_2::bucket_size            1                       # delay histogram for vnet_2 (Unspecified)
system.caches.delayVCHist.vnet_2::max_bucket            9                       # delay histogram for vnet_2 (Unspecified)
system.caches.delayVCHist.vnet_2::samples       221626                       # delay histogram for vnet_2 (Unspecified)
system.caches.delayVCHist.vnet_2::mean       0.000235                       # delay histogram for vnet_2 (Unspecified)
system.caches.delayVCHist.vnet_2::stdev      0.022479                       # delay histogram for vnet_2 (Unspecified)
system.caches.delayVCHist.vnet_2         |      221601     99.99%     99.99% |           0      0.00%     99.99% |          24      0.01%    100.00% |           0      0.00%    100.00% |           1      0.00%    100.00% |           0      0.00%    100.00% |           0      0.00%    100.00% |           0      0.00%    100.00% |           0      0.00%    100.00% |           0      0.00%    100.00% # delay histogram for vnet_2 (Unspecified)
system.caches.delayVCHist.vnet_2::total        221626                       # delay histogram for vnet_2 (Unspecified)
system.caches.L1Cache_Controller.Load    |     9597321     12.56%     12.56% |     9507225     12.45%     25.01% |     9523070     12.47%     37.47% |     9481783     12.41%     49.89% |     9664323     12.65%     62.54% |     9509945     12.45%     74.99% |     9540925     12.49%     87.48% |     9567226     12.52%    100.00% (Unspecified)
system.caches.L1Cache_Controller.Load::total     76391818                       (Unspecified)
system.caches.L1Cache_Controller.Ifetch  |     3464223     12.57%     12.57% |     3429600     12.44%     25.01% |     3440962     12.48%     37.50% |     3429828     12.44%     49.94% |     3468309     12.58%     62.52% |     3437645     12.47%     74.99% |     3446827     12.51%     87.50% |     3445229     12.50%    100.00% (Unspecified)
system.caches.L1Cache_Controller.Ifetch::total     27562623                       (Unspecified)
system.caches.L1Cache_Controller.Store   |     3459490     12.58%     12.58% |     3420908     12.44%     25.03% |     3432105     12.48%     37.51% |     3420884     12.44%     49.95% |     3458985     12.58%     62.53% |     3428505     12.47%     75.00% |     3437370     12.50%     87.50% |     3435634     12.50%    100.00% (Unspecified)
system.caches.L1Cache_Controller.Store::total     27493881                       (Unspecified)
system.caches.L1Cache_Controller.Inv     |       34849     15.85%     15.85% |       26606     12.10%     27.94% |       26734     12.16%     40.10% |       26563     12.08%     52.18% |       25843     11.75%     63.93% |       28400     12.91%     76.84% |       25869     11.76%     88.61% |       25056     11.39%    100.00% (Unspecified)
system.caches.L1Cache_Controller.Inv::total       219920                       (Unspecified)
system.caches.L1Cache_Controller.L1_Replacement |      718341     12.60%     12.60% |      708806     12.43%     25.03% |      711868     12.49%     37.52% |      708751     12.43%     49.95% |      717125     12.58%     62.53% |      711459     12.48%     75.01% |      712909     12.50%     87.51% |      712100     12.49%    100.00% (Unspecified)
system.caches.L1Cache_Controller.L1_Replacement::total      5701359                       (Unspecified)
system.caches.L1Cache_Controller.Fwd_GETX |           0      0.00%      0.00% |           0      0.00%      0.00% |           2    100.00%    100.00% |           0      0.00%    100.00% |           0      0.00%    100.00% |           0      0.00%    100.00% |           0      0.00%    100.00% |           0      0.00%    100.00% (Unspecified)
system.caches.L1Cache_Controller.Fwd_GETX::total            2                       (Unspecified)
system.caches.L1Cache_Controller.Fwd_GETS |        1095     64.26%     64.26% |         200     11.74%     76.00% |         107      6.28%     82.28% |          39      2.29%     84.57% |          23      1.35%     85.92% |          33      1.94%     87.85% |          47      2.76%     90.61% |         160      9.39%    100.00% (Unspecified)
system.caches.L1Cache_Controller.Fwd_GETS::total         1704                       (Unspecified)
system.caches.L1Cache_Controller.Data    |          78    100.00%    100.00% |           0      0.00%    100.00% |           0      0.00%    100.00% |           0      0.00%    100.00% |           0      0.00%    100.00% |           0      0.00%    100.00% |           0      0.00%    100.00% |           0      0.00%    100.00% (Unspecified)
system.caches.L1Cache_Controller.Data::total           78                       (Unspecified)
system.caches.L1Cache_Controller.Data_Exclusive |      574691     12.58%     12.58% |      567932     12.43%     25.01% |      570403     12.49%     37.50% |      568557     12.45%     49.95% |      574534     12.58%     62.53% |      569801     12.47%     75.00% |      571360     12.51%     87.51% |      570664     12.49%    100.00% (Unspecified)
system.caches.L1Cache_Controller.Data_Exclusive::total      4567942                       (Unspecified)
system.caches.L1Cache_Controller.DataS_fromL1 |          58      3.40%      3.40% |         785     46.07%     49.47% |         296     17.37%     66.84% |         107      6.28%     73.12% |         262     15.38%     88.50% |          87      5.11%     93.60% |          63      3.70%     97.30% |          46      2.70%    100.00% (Unspecified)
system.caches.L1Cache_Controller.DataS_fromL1::total         1704                       (Unspecified)
system.caches.L1Cache_Controller.Data_all_Acks |      162151     12.64%     12.64% |      159176     12.41%     25.06% |      159860     12.46%     37.52% |      159530     12.44%     49.96% |      161145     12.57%     62.52% |      160053     12.48%     75.00% |      160376     12.51%     87.51% |      160188     12.49%    100.00% (Unspecified)
system.caches.L1Cache_Controller.Data_all_Acks::total      1282479                       (Unspecified)
system.caches.L1Cache_Controller.Ack     |         719    100.00%    100.00% |           0      0.00%    100.00% |           0      0.00%    100.00% |           0      0.00%    100.00% |           0      0.00%    100.00% |           0      0.00%    100.00% |           0      0.00%    100.00% |           0      0.00%    100.00% (Unspecified)
system.caches.L1Cache_Controller.Ack::total          719                       (Unspecified)
system.caches.L1Cache_Controller.Ack_all |         348    100.00%    100.00% |           0      0.00%    100.00% |           0      0.00%    100.00% |           0      0.00%    100.00% |           0      0.00%    100.00% |           0      0.00%    100.00% |           0      0.00%    100.00% |           0      0.00%    100.00% (Unspecified)
system.caches.L1Cache_Controller.Ack_all::total          348                       (Unspecified)
system.caches.L1Cache_Controller.WB_Ack  |      701419     12.52%     12.52% |      697063     12.44%     24.96% |      699681     12.49%     37.45% |      697533     12.45%     49.90% |      706114     12.60%     62.50% |      697819     12.45%     74.95% |      702078     12.53%     87.48% |      701419     12.52%    100.00% (Unspecified)
system.caches.L1Cache_Controller.WB_Ack::total      5603126                       (Unspecified)
system.caches.L1Cache_Controller.NP.Load |      570394     12.56%     12.56% |      565007     12.44%     25.00% |      567340     12.49%     37.49% |      564916     12.44%     49.93% |      571559     12.58%     62.51% |      566983     12.48%     75.00% |      568206     12.51%     87.51% |      567424     12.49%    100.00% (Unspecified)
system.caches.L1Cache_Controller.NP.Load::total      4541829                       (Unspecified)
system.caches.L1Cache_Controller.NP.Ifetch |        5660     19.43%     19.43% |        3231     11.09%     30.52% |        3380     11.60%     42.12% |        3368     11.56%     53.68% |        3365     11.55%     65.23% |        3377     11.59%     76.82% |        3382     11.61%     88.43% |        3370     11.57%    100.00% (Unspecified)
system.caches.L1Cache_Controller.NP.Ifetch::total        29133                       (Unspecified)
system.caches.L1Cache_Controller.NP.Store |      142437     12.60%     12.60% |      140593     12.43%     25.03% |      141173     12.49%     37.52% |      140492     12.42%     49.94% |      142226     12.58%     62.52% |      141124     12.48%     75.00% |      141346     12.50%     87.50% |      141331     12.50%    100.00% (Unspecified)
system.caches.L1Cache_Controller.NP.Store::total      1130722                       (Unspecified)
system.caches.L1Cache_Controller.NP.Inv  |        5159     14.39%     14.39% |        4515     12.59%     26.98% |        4372     12.19%     39.17% |        4336     12.09%     51.27% |        4425     12.34%     63.61% |        4509     12.58%     76.18% |        4262     11.89%     88.07% |        4277     11.93%    100.00% (Unspecified)
system.caches.L1Cache_Controller.NP.Inv::total        35855                       (Unspecified)
system.caches.L1Cache_Controller.I.Load  |        7005     13.04%     13.04% |        6379     11.87%     24.91% |        6610     12.30%     37.21% |        7288     13.56%     50.77% |        6739     12.54%     63.31% |        6415     11.94%     75.25% |        6709     12.49%     87.74% |        6590     12.26%    100.00% (Unspecified)
system.caches.L1Cache_Controller.I.Load::total        53735                       (Unspecified)
system.caches.L1Cache_Controller.I.Ifetch |        5909     11.95%     11.95% |        6285     12.71%     24.66% |        6176     12.49%     37.15% |        6193     12.53%     49.68% |        6191     12.52%     62.20% |        6198     12.54%     74.74% |        6237     12.61%     87.35% |        6253     12.65%    100.00% (Unspecified)
system.caches.L1Cache_Controller.I.Ifetch::total        49442                       (Unspecified)
system.caches.L1Cache_Controller.I.Store |        5574     11.77%     11.77% |        6399     13.51%     25.28% |        5882     12.42%     37.71% |        5938     12.54%     50.25% |        5862     12.38%     62.63% |        5845     12.34%     74.97% |        5921     12.50%     87.47% |        5932     12.53%    100.00% (Unspecified)
system.caches.L1Cache_Controller.I.Store::total        47353                       (Unspecified)
system.caches.L1Cache_Controller.I.L1_Replacement |       11102     18.99%     18.99% |        6759     11.56%     30.55% |        7357     12.59%     43.14% |        6422     10.99%     54.12% |        6116     10.46%     64.59% |        8686     14.86%     79.45% |        6094     10.42%     89.87% |        5922     10.13%    100.00% (Unspecified)
system.caches.L1Cache_Controller.I.L1_Replacement::total        58458                       (Unspecified)
system.caches.L1Cache_Controller.S.Load  |       16846      6.95%      6.95% |       31172     12.85%     19.80% |       30885     12.73%     32.53% |       44346     18.28%     50.82% |       57702     23.79%     74.61% |       23534      9.70%     84.31% |       19330      7.97%     92.28% |       18715      7.72%    100.00% (Unspecified)
system.caches.L1Cache_Controller.S.Load::total       242530                       (Unspecified)
system.caches.L1Cache_Controller.S.Ifetch |     3452654     12.56%     12.56% |     3420084     12.44%     25.01% |     3431406     12.49%     37.49% |     3420267     12.44%     49.94% |     3458753     12.58%     62.52% |     3428070     12.47%     74.99% |     3437208     12.51%     87.50% |     3435606     12.50%    100.00% (Unspecified)
system.caches.L1Cache_Controller.S.Ifetch::total     27484048                       (Unspecified)
system.caches.L1Cache_Controller.S.Store |         270    100.00%    100.00% |           0      0.00%    100.00% |           0      0.00%    100.00% |           0      0.00%    100.00% |           0      0.00%    100.00% |           0      0.00%    100.00% |           0      0.00%    100.00% |           0      0.00%    100.00% (Unspecified)
system.caches.L1Cache_Controller.S.Store::total          270                       (Unspecified)
system.caches.L1Cache_Controller.S.Inv   |        9039     13.65%     13.65% |        8001     12.08%     25.72% |        8182     12.35%     38.08% |        8252     12.46%     50.53% |        8240     12.44%     62.97% |        8053     12.16%     75.13% |        8286     12.51%     87.64% |        8187     12.36%    100.00% (Unspecified)
system.caches.L1Cache_Controller.S.Inv::total        66240                       (Unspecified)
system.caches.L1Cache_Controller.S.L1_Replacement |        5820     14.63%     14.63% |        4984     12.53%     27.16% |        4829     12.14%     39.30% |        4796     12.06%     51.36% |        4895     12.31%     63.67% |        4954     12.46%     76.13% |        4737     11.91%     88.03% |        4759     11.97%    100.00% (Unspecified)
system.caches.L1Cache_Controller.S.L1_Replacement::total        39774                       (Unspecified)
system.caches.L1Cache_Controller.E.Load  |     6467207     12.58%     12.58% |     6394995     12.44%     25.02% |     6403945     12.46%     37.48% |     6358139     12.37%     49.85% |     6492015     12.63%     62.48% |     6400862     12.45%     74.93% |     6429254     12.51%     87.44% |     6456300     12.56%    100.00% (Unspecified)
system.caches.L1Cache_Controller.E.Load::total     51402717                       (Unspecified)
system.caches.L1Cache_Controller.E.Store |        6747     13.76%     13.76% |        5758     11.74%     25.50% |        6036     12.31%     37.81% |        6265     12.77%     50.58% |        6182     12.61%     63.19% |        5968     12.17%     75.36% |        6090     12.42%     87.77% |        5996     12.23%    100.00% (Unspecified)
system.caches.L1Cache_Controller.E.Store::total        49042                       (Unspecified)
system.caches.L1Cache_Controller.E.Inv   |        8876     38.12%     38.12% |        2165      9.30%     47.41% |        2538     10.90%     58.31% |        1667      7.16%     65.47% |        1272      5.46%     70.94% |        4239     18.20%     89.14% |        1371      5.89%     95.03% |        1158      4.97%    100.00% (Unspecified)
system.caches.L1Cache_Controller.E.Inv::total        23286                       (Unspecified)
system.caches.L1Cache_Controller.E.L1_Replacement |      555301     12.42%     12.42% |      557107     12.46%     24.88% |      558958     12.50%     37.38% |      557577     12.47%     49.85% |      564224     12.62%     62.46% |      557119     12.46%     74.92% |      561020     12.55%     87.47% |      560362     12.53%    100.00% (Unspecified)
system.caches.L1Cache_Controller.E.L1_Replacement::total      4471668                       (Unspecified)
system.caches.L1Cache_Controller.E.Fwd_GETX |           0      0.00%      0.00% |           0      0.00%      0.00% |           2    100.00%    100.00% |           0      0.00%    100.00% |           0      0.00%    100.00% |           0      0.00%    100.00% |           0      0.00%    100.00% |           0      0.00%    100.00% (Unspecified)
system.caches.L1Cache_Controller.E.Fwd_GETX::total            2                       (Unspecified)
system.caches.L1Cache_Controller.E.Fwd_GETS |         681     52.79%     52.79% |         200     15.50%     68.29% |         107      8.29%     76.59% |          39      3.02%     79.61% |          23      1.78%     81.40% |          33      2.56%     83.95% |          47      3.64%     87.60% |         160     12.40%    100.00% (Unspecified)
system.caches.L1Cache_Controller.E.Fwd_GETS::total         1290                       (Unspecified)
system.caches.L1Cache_Controller.M.Load  |     2535869     12.58%     12.58% |     2509672     12.45%     25.04% |     2514290     12.48%     37.52% |     2507094     12.44%     49.96% |     2536308     12.59%     62.54% |     2512151     12.47%     75.01% |     2517426     12.49%     87.50% |     2518197     12.50%    100.00% (Unspecified)
system.caches.L1Cache_Controller.M.Load::total     20151007                       (Unspecified)
system.caches.L1Cache_Controller.M.Store |     3304462     12.58%     12.58% |     3268158     12.44%     25.02% |     3279014     12.48%     37.51% |     3268189     12.44%     49.95% |     3304715     12.58%     62.53% |     3275568     12.47%     75.00% |     3284013     12.50%     87.50% |     3282375     12.50%    100.00% (Unspecified)
system.caches.L1Cache_Controller.M.Store::total     26266494                       (Unspecified)
system.caches.L1Cache_Controller.M.Inv   |       11774     12.47%     12.47% |       11919     12.62%     25.08% |       11625     12.31%     37.39% |       12292     13.01%     50.41% |       11877     12.57%     62.98% |       11585     12.27%     75.25% |       11948     12.65%     87.90% |       11431     12.10%    100.00% (Unspecified)
system.caches.L1Cache_Controller.M.Inv::total        94451                       (Unspecified)
system.caches.L1Cache_Controller.M.L1_Replacement |      146118     12.91%     12.91% |      139956     12.37%     25.28% |      140724     12.44%     37.72% |      139956     12.37%     50.09% |      141890     12.54%     62.63% |      140700     12.44%     75.07% |      141058     12.47%     87.53% |      141057     12.47%    100.00% (Unspecified)
system.caches.L1Cache_Controller.M.L1_Replacement::total      1131459                       (Unspecified)
system.caches.L1Cache_Controller.M.Fwd_GETS |         414    100.00%    100.00% |           0      0.00%    100.00% |           0      0.00%    100.00% |           0      0.00%    100.00% |           0      0.00%    100.00% |           0      0.00%    100.00% |           0      0.00%    100.00% |           0      0.00%    100.00% (Unspecified)
system.caches.L1Cache_Controller.M.Fwd_GETS::total          414                       (Unspecified)
system.caches.L1Cache_Controller.IS.Inv  |           0      0.00%      0.00% |           6      7.59%      7.59% |          14     17.72%     25.32% |          16     20.25%     45.57% |          27     34.18%     79.75% |          12     15.19%     94.94% |           2      2.53%     97.47% |           2      2.53%    100.00% (Unspecified)
system.caches.L1Cache_Controller.IS.Inv::total           79                       (Unspecified)
system.caches.L1Cache_Controller.IS.Data_Exclusive |      574691     12.58%     12.58% |      567932     12.43%     25.01% |      570403     12.49%     37.50% |      568557     12.45%     49.95% |      574534     12.58%     62.53% |      569801     12.47%     75.00% |      571360     12.51%     87.51% |      570664     12.49%    100.00% (Unspecified)
system.caches.L1Cache_Controller.IS.Data_Exclusive::total      4567942                       (Unspecified)
system.caches.L1Cache_Controller.IS.DataS_fromL1 |          58      3.40%      3.40% |         785     46.07%     49.47% |         296     17.37%     66.84% |         107      6.28%     73.12% |         262     15.38%     88.50% |          87      5.11%     93.60% |          63      3.70%     97.30% |          46      2.70%    100.00% (Unspecified)
system.caches.L1Cache_Controller.IS.DataS_fromL1::total         1704                       (Unspecified)
system.caches.L1Cache_Controller.IS.Data_all_Acks |       14218     13.62%     13.62% |       12178     11.66%     25.28% |       12792     12.25%     37.53% |       13084     12.53%     50.07% |       13031     12.48%     62.55% |       13073     12.52%     75.07% |       13108     12.55%     87.62% |       12924     12.38%    100.00% (Unspecified)
system.caches.L1Cache_Controller.IS.Data_all_Acks::total       104408                       (Unspecified)
system.caches.L1Cache_Controller.IM.Data |          78    100.00%    100.00% |           0      0.00%    100.00% |           0      0.00%    100.00% |           0      0.00%    100.00% |           0      0.00%    100.00% |           0      0.00%    100.00% |           0      0.00%    100.00% |           0      0.00%    100.00% (Unspecified)
system.caches.L1Cache_Controller.IM.Data::total           78                       (Unspecified)
system.caches.L1Cache_Controller.IM.Data_all_Acks |      147933     12.56%     12.56% |      146992     12.48%     25.04% |      147054     12.48%     37.52% |      146430     12.43%     49.95% |      148087     12.57%     62.52% |      146968     12.48%     75.00% |      147266     12.50%     87.50% |      147262     12.50%    100.00% (Unspecified)
system.caches.L1Cache_Controller.IM.Data_all_Acks::total      1177992                       (Unspecified)
system.caches.L1Cache_Controller.SM.Ack  |         719    100.00%    100.00% |           0      0.00%    100.00% |           0      0.00%    100.00% |           0      0.00%    100.00% |           0      0.00%    100.00% |           0      0.00%    100.00% |           0      0.00%    100.00% |           0      0.00%    100.00% (Unspecified)
system.caches.L1Cache_Controller.SM.Ack::total          719                       (Unspecified)
system.caches.L1Cache_Controller.SM.Ack_all |         348    100.00%    100.00% |           0      0.00%    100.00% |           0      0.00%    100.00% |           0      0.00%    100.00% |           0      0.00%    100.00% |           0      0.00%    100.00% |           0      0.00%    100.00% |           0      0.00%    100.00% (Unspecified)
system.caches.L1Cache_Controller.SM.Ack_all::total          348                       (Unspecified)
system.caches.L1Cache_Controller.IS_I.Data_all_Acks |           0      0.00%      0.00% |           6      7.59%      7.59% |          14     17.72%     25.32% |          16     20.25%     45.57% |          27     34.18%     79.75% |          12     15.19%     94.94% |           2      2.53%     97.47% |           2      2.53%    100.00% (Unspecified)
system.caches.L1Cache_Controller.IS_I.Data_all_Acks::total           79                       (Unspecified)
system.caches.L1Cache_Controller.M_I.Inv |           1     11.11%     11.11% |           0      0.00%     11.11% |           3     33.33%     44.44% |           0      0.00%     44.44% |           2     22.22%     66.67% |           2     22.22%     88.89% |           0      0.00%     88.89% |           1     11.11%    100.00% (Unspecified)
system.caches.L1Cache_Controller.M_I.Inv::total            9                       (Unspecified)
system.caches.L1Cache_Controller.M_I.WB_Ack |      701418     12.52%     12.52% |      697063     12.44%     24.96% |      699678     12.49%     37.45% |      697533     12.45%     49.90% |      706112     12.60%     62.50% |      697817     12.45%     74.95% |      702078     12.53%     87.48% |      701418     12.52%    100.00% (Unspecified)
system.caches.L1Cache_Controller.M_I.WB_Ack::total      5603117                       (Unspecified)
system.caches.L1Cache_Controller.SINK_WB_ACK.WB_Ack |           1     11.11%     11.11% |           0      0.00%     11.11% |           3     33.33%     44.44% |           0      0.00%     44.44% |           2     22.22%     66.67% |           2     22.22%     88.89% |           0      0.00%     88.89% |           1     11.11%    100.00% (Unspecified)
system.caches.L1Cache_Controller.SINK_WB_ACK.WB_Ack::total            9                       (Unspecified)
system.caches.Directory_Controller.Fetch |       12448      0.22%      0.22% |     5746825     99.78%    100.00% (Unspecified)
system.caches.Directory_Controller.Fetch::total      5759273                       (Unspecified)
system.caches.Directory_Controller.Data  |         900      0.07%      0.07% |     1274546     99.93%    100.00% (Unspecified)
system.caches.Directory_Controller.Data::total      1275446                       (Unspecified)
system.caches.Directory_Controller.Memory_Data |       12448      0.22%      0.22% |     5746815     99.78%    100.00% (Unspecified)
system.caches.Directory_Controller.Memory_Data::total      5759263                       (Unspecified)
system.caches.Directory_Controller.Memory_Ack |         900      0.07%      0.07% |     1274546     99.93%    100.00% (Unspecified)
system.caches.Directory_Controller.Memory_Ack::total      1275446                       (Unspecified)
system.caches.Directory_Controller.CleanReplacement |       11391      0.25%      0.25% |     4472436     99.75%    100.00% (Unspecified)
system.caches.Directory_Controller.CleanReplacement::total      4483827                       (Unspecified)
system.caches.Directory_Controller.I.Fetch |       12448      0.22%      0.22% |     5746825     99.78%    100.00% (Unspecified)
system.caches.Directory_Controller.I.Fetch::total      5759273                       (Unspecified)
system.caches.Directory_Controller.M.Data |         900      0.07%      0.07% |     1274546     99.93%    100.00% (Unspecified)
system.caches.Directory_Controller.M.Data::total      1275446                       (Unspecified)
system.caches.Directory_Controller.M.CleanReplacement |       11391      0.25%      0.25% |     4472436     99.75%    100.00% (Unspecified)
system.caches.Directory_Controller.M.CleanReplacement::total      4483827                       (Unspecified)
system.caches.Directory_Controller.IM.Memory_Data |       12448      0.22%      0.22% |     5746815     99.78%    100.00% (Unspecified)
system.caches.Directory_Controller.IM.Memory_Data::total      5759263                       (Unspecified)
system.caches.Directory_Controller.MI.Memory_Ack |         900      0.07%      0.07% |     1274546     99.93%    100.00% (Unspecified)
system.caches.Directory_Controller.MI.Memory_Ack::total      1275446                       (Unspecified)
system.caches.L2Cache_Controller.L1_GET_INSTR |       10770     13.68%     13.68% |       11124     14.13%     27.82% |       10071     12.80%     40.61% |        7356      9.35%     49.96% |       10324     13.12%     63.08% |       10391     13.20%     76.28% |        9145     11.62%     87.90% |        9522     12.10%    100.00% (Unspecified)
system.caches.L2Cache_Controller.L1_GET_INSTR::total        78703                       (Unspecified)
system.caches.L2Cache_Controller.L1_GETS |      578191     12.58%     12.58% |      576098     12.53%     25.11% |      574647     12.50%     37.61% |      573488     12.48%     50.09% |      573753     12.48%     62.57% |      572011     12.44%     75.01% |      573321     12.47%     87.49% |      575248     12.51%    100.00% (Unspecified)
system.caches.L2Cache_Controller.L1_GETS::total      4596757                       (Unspecified)
system.caches.L2Cache_Controller.L1_GETX |      147583     12.53%     12.53% |      147248     12.50%     25.02% |      145952     12.39%     37.41% |      146692     12.45%     49.86% |      146654     12.45%     62.31% |      148350     12.59%     74.90% |      147861     12.55%     87.45% |      147920     12.55%    100.00% (Unspecified)
system.caches.L2Cache_Controller.L1_GETX::total      1178260                       (Unspecified)
system.caches.L2Cache_Controller.L1_UPGRADE |           0      0.00%      0.00% |          40     11.27%     11.27% |           0      0.00%     11.27% |           0      0.00%     11.27% |           0      0.00%     11.27% |           0      0.00%     11.27% |         315     88.73%    100.00% |           0      0.00%    100.00% (Unspecified)
system.caches.L2Cache_Controller.L1_UPGRADE::total          355                       (Unspecified)
system.caches.L2Cache_Controller.L1_PUTX |      700675     12.51%     12.51% |      700941     12.51%     25.01% |      699544     12.48%     37.50% |      700009     12.49%     49.99% |      700087     12.49%     62.49% |      700765     12.51%     74.99% |      700276     12.50%     87.49% |      700821     12.51%    100.00% (Unspecified)
system.caches.L2Cache_Controller.L1_PUTX::total      5603118                       (Unspecified)
system.caches.L2Cache_Controller.L1_PUTX_old |           8     44.44%     44.44% |           2     11.11%     55.56% |           0      0.00%     55.56% |           2     11.11%     66.67% |           0      0.00%     66.67% |           6     33.33%    100.00% |           0      0.00%    100.00% |           0      0.00%    100.00% (Unspecified)
system.caches.L2Cache_Controller.L1_PUTX_old::total           18                       (Unspecified)
system.caches.L2Cache_Controller.L2_Replacement |      147903     12.52%     12.52% |      147503     12.49%     25.01% |      146521     12.41%     37.42% |      147511     12.49%     49.91% |      146967     12.44%     62.35% |      148630     12.59%     74.94% |      147614     12.50%     87.44% |      148352     12.56%    100.00% (Unspecified)
system.caches.L2Cache_Controller.L2_Replacement::total      1181001                       (Unspecified)
system.caches.L2Cache_Controller.L2_Replacement_clean |      572985     12.52%     12.52% |      573505     12.53%     25.04% |      571814     12.49%     37.53% |      571424     12.48%     50.01% |      572492     12.50%     62.52% |      571681     12.49%     75.00% |      571806     12.49%     87.49% |      572565     12.51%    100.00% (Unspecified)
system.caches.L2Cache_Controller.L2_Replacement_clean::total      4578272                       (Unspecified)
system.caches.L2Cache_Controller.Mem_Data |      720886     12.52%     12.52% |      721006     12.52%     25.04% |      718334     12.47%     37.51% |      718933     12.48%     49.99% |      719458     12.49%     62.48% |      720309     12.51%     74.99% |      719420     12.49%     87.48% |      720917     12.52%    100.00% (Unspecified)
system.caches.L2Cache_Controller.Mem_Data::total      5759263                       (Unspecified)
system.caches.L2Cache_Controller.Mem_Ack |      720888     12.52%     12.52% |      721008     12.52%     25.04% |      718335     12.47%     37.51% |      718935     12.48%     49.99% |      719459     12.49%     62.48% |      720311     12.51%     74.99% |      719420     12.49%     87.48% |      720917     12.52%    100.00% (Unspecified)
system.caches.L2Cache_Controller.Mem_Ack::total      5759273                       (Unspecified)
system.caches.L2Cache_Controller.WB_Data |       12314     12.98%     12.98% |       12032     12.68%     25.66% |       11129     11.73%     37.40% |       11235     11.84%     49.24% |       11363     11.98%     61.22% |       11634     12.26%     73.48% |       12474     13.15%     86.63% |       12684     13.37%    100.00% (Unspecified)
system.caches.L2Cache_Controller.WB_Data::total        94865                       (Unspecified)
system.caches.L2Cache_Controller.WB_Data_clean |         374     28.79%     28.79% |         198     15.24%     44.03% |         191     14.70%     58.74% |         145     11.16%     69.90% |          65      5.00%     74.90% |          51      3.93%     78.83% |         176     13.55%     92.38% |          99      7.62%    100.00% (Unspecified)
system.caches.L2Cache_Controller.WB_Data_clean::total         1299                       (Unspecified)
system.caches.L2Cache_Controller.Ack     |       14424     16.62%     16.62% |       12784     14.73%     31.35% |       11246     12.96%     44.31% |        8343      9.61%     53.92% |       10417     12.00%     65.92% |        9626     11.09%     77.01% |        8950     10.31%     87.33% |       10999     12.67%    100.00% (Unspecified)
system.caches.L2Cache_Controller.Ack::total        86789                       (Unspecified)
system.caches.L2Cache_Controller.Ack_all |        5058     13.35%     13.35% |        5129     13.54%     26.90% |        4676     12.35%     39.24% |        4706     12.43%     51.67% |        5018     13.25%     64.92% |        4898     12.93%     77.85% |        3935     10.39%     88.24% |        4454     11.76%    100.00% (Unspecified)
system.caches.L2Cache_Controller.Ack_all::total        37874                       (Unspecified)
system.caches.L2Cache_Controller.Unblock |         462     27.11%     27.11% |         243     14.26%     41.37% |         191     11.21%     52.58% |         144      8.45%     61.03% |          65      3.81%     64.85% |          48      2.82%     67.66% |         452     26.53%     94.19% |          99      5.81%    100.00% (Unspecified)
system.caches.L2Cache_Controller.Unblock::total         1704                       (Unspecified)
system.caches.L2Cache_Controller.Exclusive_Unblock |      719029     12.51%     12.51% |      719092     12.51%     25.03% |      716541     12.47%     37.50% |      717591     12.49%     49.98% |      717743     12.49%     62.48% |      718784     12.51%     74.98% |      718419     12.50%     87.49% |      719083     12.51%    100.00% (Unspecified)
system.caches.L2Cache_Controller.Exclusive_Unblock::total      5746282                       (Unspecified)
system.caches.L2Cache_Controller.NP.L1_GET_INSTR |        1492     13.42%     13.42% |        1623     14.60%     28.02% |        1430     12.86%     40.88% |        1132     10.18%     51.06% |        1428     12.84%     63.90% |        1358     12.21%     76.11% |        1225     11.02%     87.13% |        1431     12.87%    100.00% (Unspecified)
system.caches.L2Cache_Controller.NP.L1_GET_INSTR::total        11119                       (Unspecified)
system.caches.L2Cache_Controller.NP.L1_GETS |      571887     12.51%     12.51% |      572169     12.52%     25.03% |      570980     12.49%     37.53% |      571129     12.50%     50.02% |      571394     12.50%     62.53% |      570622     12.49%     75.01% |      570396     12.48%     87.49% |      571588     12.51%    100.00% (Unspecified)
system.caches.L2Cache_Controller.NP.L1_GETS::total      4570165                       (Unspecified)
system.caches.L2Cache_Controller.NP.L1_GETX |      147509     12.52%     12.52% |      147216     12.50%     25.02% |      145925     12.39%     37.41% |      146674     12.45%     49.86% |      146637     12.45%     62.31% |      148331     12.59%     74.90% |      147799     12.55%     87.44% |      147898     12.56%    100.00% (Unspecified)
system.caches.L2Cache_Controller.NP.L1_GETX::total      1177989                       (Unspecified)
system.caches.L2Cache_Controller.NP.L1_PUTX_old |           4     44.44%     44.44% |           1     11.11%     55.56% |           0      0.00%     55.56% |           1     11.11%     66.67% |           0      0.00%     66.67% |           3     33.33%    100.00% |           0      0.00%    100.00% |           0      0.00%    100.00% (Unspecified)
system.caches.L2Cache_Controller.NP.L1_PUTX_old::total            9                       (Unspecified)
system.caches.L2Cache_Controller.SS.L1_GET_INSTR |        6531     13.92%     13.92% |        6568     14.00%     27.92% |        6366     13.57%     41.49% |        4385      9.35%     50.84% |        5870     12.51%     63.35% |        5809     12.38%     75.74% |        5543     11.82%     87.55% |        5840     12.45%    100.00% (Unspecified)
system.caches.L2Cache_Controller.SS.L1_GET_INSTR::total        46912                       (Unspecified)
system.caches.L2Cache_Controller.SS.L1_GETS |        4522     24.72%     24.72% |        2612     14.28%     39.00% |        2652     14.50%     53.50% |        1644      8.99%     62.48% |        1677      9.17%     71.65% |         770      4.21%     75.86% |        1573      8.60%     84.46% |        2843     15.54%    100.00% (Unspecified)
system.caches.L2Cache_Controller.SS.L1_GETS::total        18293                       (Unspecified)
system.caches.L2Cache_Controller.SS.L1_GETX |          39     50.00%     50.00% |           0      0.00%     50.00% |           0      0.00%     50.00% |           0      0.00%     50.00% |           0      0.00%     50.00% |           0      0.00%     50.00% |          39     50.00%    100.00% |           0      0.00%    100.00% (Unspecified)
system.caches.L2Cache_Controller.SS.L1_GETX::total           78                       (Unspecified)
system.caches.L2Cache_Controller.SS.L1_UPGRADE |           0      0.00%      0.00% |          40     14.81%     14.81% |           0      0.00%     14.81% |           0      0.00%     14.81% |           0      0.00%     14.81% |           0      0.00%     14.81% |         230     85.19%    100.00% |           0      0.00%    100.00% (Unspecified)
system.caches.L2Cache_Controller.SS.L1_UPGRADE::total          270                       (Unspecified)
system.caches.L2Cache_Controller.SS.L2_Replacement |          90     50.00%     50.00% |          45     25.00%     75.00% |           0      0.00%     75.00% |           0      0.00%     75.00% |           0      0.00%     75.00% |           0      0.00%     75.00% |          45     25.00%    100.00% |           0      0.00%    100.00% (Unspecified)
system.caches.L2Cache_Controller.SS.L2_Replacement::total          180                       (Unspecified)
system.caches.L2Cache_Controller.SS.L2_Replacement_clean |        2222     15.42%     15.42% |        2101     14.58%     30.00% |        1958     13.59%     43.59% |        1487     10.32%     53.91% |        1776     12.33%     66.24% |        1557     10.81%     77.05% |        1392      9.66%     86.71% |        1915     13.29%    100.00% (Unspecified)
system.caches.L2Cache_Controller.SS.L2_Replacement_clean::total        14408                       (Unspecified)
system.caches.L2Cache_Controller.M.L1_GET_INSTR |          10     14.29%     14.29% |          12     17.14%     31.43% |           9     12.86%     44.29% |           8     11.43%     55.71% |           6      8.57%     64.29% |           7     10.00%     74.29% |           8     11.43%     85.71% |          10     14.29%    100.00% (Unspecified)
system.caches.L2Cache_Controller.M.L1_GET_INSTR::total           70                       (Unspecified)
system.caches.L2Cache_Controller.M.L1_GETS |          21     24.14%     24.14% |          16     18.39%     42.53% |           3      3.45%     45.98% |          19     21.84%     67.82% |          20     22.99%     90.80% |           1      1.15%     91.95% |           1      1.15%     93.10% |           6      6.90%    100.00% (Unspecified)
system.caches.L2Cache_Controller.M.L1_GETS::total           87                       (Unspecified)
system.caches.L2Cache_Controller.M.L1_GETX |           3     60.00%     60.00% |           0      0.00%     60.00% |           0      0.00%     60.00% |           0      0.00%     60.00% |           0      0.00%     60.00% |           1     20.00%     80.00% |           0      0.00%     80.00% |           1     20.00%    100.00% (Unspecified)
system.caches.L2Cache_Controller.M.L1_GETX::total            5                       (Unspecified)
system.caches.L2Cache_Controller.M.L2_Replacement |      147810     12.52%     12.52% |      147458     12.49%     25.01% |      146521     12.41%     37.41% |      147511     12.49%     49.91% |      146967     12.45%     62.35% |      148628     12.59%     74.94% |      147569     12.50%     87.44% |      148351     12.56%    100.00% (Unspecified)
system.caches.L2Cache_Controller.M.L2_Replacement::total      1180815                       (Unspecified)
system.caches.L2Cache_Controller.M.L2_Replacement_clean |      555794     12.50%     12.50% |      556434     12.52%     25.02% |      556009     12.51%     37.52% |      555482     12.49%     50.01% |      556111     12.51%     62.52% |      555148     12.49%     75.01% |      555718     12.50%     87.51% |      555428     12.49%    100.00% (Unspecified)
system.caches.L2Cache_Controller.M.L2_Replacement_clean::total      4446124                       (Unspecified)
system.caches.L2Cache_Controller.MT.L1_GETS |         462     27.11%     27.11% |         243     14.26%     41.37% |         191     11.21%     52.58% |         144      8.45%     61.03% |          65      3.81%     64.85% |          48      2.82%     67.66% |         452     26.53%     94.19% |          99      5.81%    100.00% (Unspecified)
system.caches.L2Cache_Controller.MT.L1_GETS::total         1704                       (Unspecified)
system.caches.L2Cache_Controller.MT.L1_GETX |           1     50.00%     50.00% |           0      0.00%     50.00% |           0      0.00%     50.00% |           0      0.00%     50.00% |           0      0.00%     50.00% |           0      0.00%     50.00% |           1     50.00%    100.00% |           0      0.00%    100.00% (Unspecified)
system.caches.L2Cache_Controller.MT.L1_GETX::total            2                       (Unspecified)
system.caches.L2Cache_Controller.MT.L1_PUTX |      700675     12.51%     12.51% |      700941     12.51%     25.01% |      699544     12.48%     37.50% |      700009     12.49%     49.99% |      700087     12.49%     62.49% |      700765     12.51%     74.99% |      700276     12.50%     87.49% |      700821     12.51%    100.00% (Unspecified)
system.caches.L2Cache_Controller.MT.L1_PUTX::total      5603118                       (Unspecified)
system.caches.L2Cache_Controller.MT.L2_Replacement |           3     50.00%     50.00% |           0      0.00%     50.00% |           0      0.00%     50.00% |           0      0.00%     50.00% |           0      0.00%     50.00% |           2     33.33%     83.33% |           0      0.00%     83.33% |           1     16.67%    100.00% (Unspecified)
system.caches.L2Cache_Controller.MT.L2_Replacement::total            6                       (Unspecified)
system.caches.L2Cache_Controller.MT.L2_Replacement_clean |       14969     12.71%     12.71% |       14970     12.71%     25.43% |       13847     11.76%     37.19% |       14455     12.28%     49.47% |       14605     12.40%     61.87% |       14976     12.72%     74.59% |       14696     12.48%     87.07% |       15222     12.93%    100.00% (Unspecified)
system.caches.L2Cache_Controller.MT.L2_Replacement_clean::total       117740                       (Unspecified)
system.caches.L2Cache_Controller.M_I.L1_GET_INSTR |           1      0.79%      0.79% |           0      0.00%      0.79% |           0      0.00%      0.79% |           0      0.00%      0.79% |          59     46.83%     47.62% |          65     51.59%     99.21% |           0      0.00%     99.21% |           1      0.79%    100.00% (Unspecified)
system.caches.L2Cache_Controller.M_I.L1_GET_INSTR::total          126                       (Unspecified)
system.caches.L2Cache_Controller.M_I.L1_GETS |          18      7.50%      7.50% |          22      9.17%     16.67% |          21      8.75%     25.42% |          21      8.75%     34.17% |          16      6.67%     40.83% |          24     10.00%     50.83% |          30     12.50%     63.33% |          88     36.67%    100.00% (Unspecified)
system.caches.L2Cache_Controller.M_I.L1_GETS::total          240                       (Unspecified)
system.caches.L2Cache_Controller.M_I.L1_GETX |          31     16.67%     16.67% |          32     17.20%     33.87% |          27     14.52%     48.39% |          18      9.68%     58.06% |          17      9.14%     67.20% |          18      9.68%     76.88% |          22     11.83%     88.71% |          21     11.29%    100.00% (Unspecified)
system.caches.L2Cache_Controller.M_I.L1_GETX::total          186                       (Unspecified)
system.caches.L2Cache_Controller.M_I.Mem_Ack |      720888     12.52%     12.52% |      721008     12.52%     25.04% |      718335     12.47%     37.51% |      718935     12.48%     49.99% |      719459     12.49%     62.48% |      720311     12.51%     74.99% |      719420     12.49%     87.48% |      720917     12.52%    100.00% (Unspecified)
system.caches.L2Cache_Controller.M_I.Mem_Ack::total      5759273                       (Unspecified)
system.caches.L2Cache_Controller.MT_I.WB_Data |           3     50.00%     50.00% |           0      0.00%     50.00% |           0      0.00%     50.00% |           0      0.00%     50.00% |           0      0.00%     50.00% |           2     33.33%     83.33% |           0      0.00%     83.33% |           1     16.67%    100.00% (Unspecified)
system.caches.L2Cache_Controller.MT_I.WB_Data::total            6                       (Unspecified)
system.caches.L2Cache_Controller.MCT_I.L1_PUTX_old |           4     44.44%     44.44% |           1     11.11%     55.56% |           0      0.00%     55.56% |           1     11.11%     66.67% |           0      0.00%     66.67% |           3     33.33%    100.00% |           0      0.00%    100.00% |           0      0.00%    100.00% (Unspecified)
system.caches.L2Cache_Controller.MCT_I.L1_PUTX_old::total            9                       (Unspecified)
system.caches.L2Cache_Controller.MCT_I.WB_Data |       12219     12.94%     12.94% |       11986     12.69%     25.63% |       11129     11.78%     37.41% |       11235     11.90%     49.31% |       11363     12.03%     61.34% |       11632     12.32%     73.66% |       12198     12.92%     86.57% |       12683     13.43%    100.00% (Unspecified)
system.caches.L2Cache_Controller.MCT_I.WB_Data::total        94445                       (Unspecified)
system.caches.L2Cache_Controller.MCT_I.WB_Data_clean |           4     44.44%     44.44% |           1     11.11%     55.56% |           0      0.00%     55.56% |           1     11.11%     66.67% |           0      0.00%     66.67% |           3     33.33%    100.00% |           0      0.00%    100.00% |           0      0.00%    100.00% (Unspecified)
system.caches.L2Cache_Controller.MCT_I.WB_Data_clean::total            9                       (Unspecified)
system.caches.L2Cache_Controller.MCT_I.Ack_all |        2746     11.79%     11.79% |        2983     12.81%     24.60% |        2718     11.67%     36.28% |        3219     13.82%     50.10% |        3242     13.92%     64.02% |        3341     14.35%     78.37% |        2498     10.73%     89.10% |        2539     10.90%    100.00% (Unspecified)
system.caches.L2Cache_Controller.MCT_I.Ack_all::total        23286                       (Unspecified)
system.caches.L2Cache_Controller.I_I.L1_GET_INSTR |           0      0.00%      0.00% |           0      0.00%      0.00% |           0      0.00%      0.00% |           0      0.00%      0.00% |           0      0.00%      0.00% |           2    100.00%    100.00% |           0      0.00%    100.00% |           0      0.00%    100.00% (Unspecified)
system.caches.L2Cache_Controller.I_I.L1_GET_INSTR::total            2                       (Unspecified)
system.caches.L2Cache_Controller.I_I.Ack |       13898     16.21%     16.21% |       12573     14.66%     30.87% |       11246     13.12%     43.99% |        8343      9.73%     53.72% |       10417     12.15%     65.87% |        9626     11.23%     77.10% |        8635     10.07%     87.17% |       10999     12.83%    100.00% (Unspecified)
system.caches.L2Cache_Controller.I_I.Ack::total        85737                       (Unspecified)
system.caches.L2Cache_Controller.I_I.Ack_all |        2222     15.42%     15.42% |        2101     14.58%     30.00% |        1958     13.59%     43.59% |        1487     10.32%     53.91% |        1776     12.33%     66.24% |        1557     10.81%     77.05% |        1392      9.66%     86.71% |        1915     13.29%    100.00% (Unspecified)
system.caches.L2Cache_Controller.I_I.Ack_all::total        14408                       (Unspecified)
system.caches.L2Cache_Controller.S_I.Ack |         526     50.00%     50.00% |         211     20.06%     70.06% |           0      0.00%     70.06% |           0      0.00%     70.06% |           0      0.00%     70.06% |           0      0.00%     70.06% |         315     29.94%    100.00% |           0      0.00%    100.00% (Unspecified)
system.caches.L2Cache_Controller.S_I.Ack::total         1052                       (Unspecified)
system.caches.L2Cache_Controller.S_I.Ack_all |          90     50.00%     50.00% |          45     25.00%     75.00% |           0      0.00%     75.00% |           0      0.00%     75.00% |           0      0.00%     75.00% |           0      0.00%     75.00% |          45     25.00%    100.00% |           0      0.00%    100.00% (Unspecified)
system.caches.L2Cache_Controller.S_I.Ack_all::total          180                       (Unspecified)
system.caches.L2Cache_Controller.ISS.L1_GETS |         429     18.62%     18.62% |         347     15.06%     33.68% |         366     15.89%     49.57% |         229      9.94%     59.51% |         307     13.32%     72.83% |         169      7.34%     80.16% |          47      2.04%     82.20% |         410     17.80%    100.00% (Unspecified)
system.caches.L2Cache_Controller.ISS.L1_GETS::total         2304                       (Unspecified)
system.caches.L2Cache_Controller.ISS.Mem_Data |      571456     12.51%     12.51% |      571821     12.52%     25.03% |      570613     12.49%     37.52% |      570899     12.50%     50.02% |      571087     12.50%     62.52% |      570452     12.49%     75.01% |      570349     12.49%     87.50% |      571178     12.50%    100.00% (Unspecified)
system.caches.L2Cache_Controller.ISS.Mem_Data::total      4567855                       (Unspecified)
system.caches.L2Cache_Controller.IS.L1_GET_INSTR |        2736     13.36%     13.36% |        2921     14.27%     27.63% |        2266     11.07%     38.70% |        1831      8.94%     47.64% |        2961     14.46%     62.10% |        3150     15.39%     77.49% |        2369     11.57%     89.06% |        2240     10.94%    100.00% (Unspecified)
system.caches.L2Cache_Controller.IS.L1_GET_INSTR::total        20474                       (Unspecified)
system.caches.L2Cache_Controller.IS.L1_GETS |         780     25.91%     25.91% |         591     19.63%     45.53% |         414     13.75%     59.28% |         302     10.03%     69.31% |         274      9.10%     78.41% |         368     12.22%     90.63% |          71      2.36%     92.99% |         211      7.01%    100.00% (Unspecified)
system.caches.L2Cache_Controller.IS.L1_GETS::total         3011                       (Unspecified)
system.caches.L2Cache_Controller.IS.Mem_Data |        1921     14.31%     14.31% |        1970     14.68%     28.99% |        1796     13.38%     42.37% |        1361     10.14%     52.51% |        1735     12.93%     65.43% |        1527     11.38%     76.81% |        1272      9.48%     86.28% |        1841     13.72%    100.00% (Unspecified)
system.caches.L2Cache_Controller.IS.Mem_Data::total        13423                       (Unspecified)
system.caches.L2Cache_Controller.IM.Mem_Data |      147509     12.52%     12.52% |      147215     12.50%     25.02% |      145925     12.39%     37.41% |      146673     12.45%     49.86% |      146636     12.45%     62.31% |      148330     12.59%     74.90% |      147799     12.55%     87.44% |      147898     12.56%    100.00% (Unspecified)
system.caches.L2Cache_Controller.IM.Mem_Data::total      1177985                       (Unspecified)
system.caches.L2Cache_Controller.SS_MB.L1_GETS |           0      0.00%      0.00% |           0      0.00%      0.00% |           0      0.00%      0.00% |           0      0.00%      0.00% |           0      0.00%      0.00% |           0      0.00%      0.00% |         410    100.00%    100.00% |           0      0.00%    100.00% (Unspecified)
system.caches.L2Cache_Controller.SS_MB.L1_GETS::total          410                       (Unspecified)
system.caches.L2Cache_Controller.SS_MB.Exclusive_Unblock |          39     11.21%     11.21% |          40     11.49%     22.70% |           0      0.00%     22.70% |           0      0.00%     22.70% |           0      0.00%     22.70% |           0      0.00%     22.70% |         269     77.30%    100.00% |           0      0.00%    100.00% (Unspecified)
system.caches.L2Cache_Controller.SS_MB.Exclusive_Unblock::total          348                       (Unspecified)
system.caches.L2Cache_Controller.MT_MB.L1_GETS |           0      0.00%      0.00% |           3     60.00%     60.00% |           0      0.00%     60.00% |           0      0.00%     60.00% |           0      0.00%     60.00% |           0      0.00%     60.00% |           0      0.00%     60.00% |           2     40.00%    100.00% (Unspecified)
system.caches.L2Cache_Controller.MT_MB.L1_GETS::total            5                       (Unspecified)
system.caches.L2Cache_Controller.MT_MB.Exclusive_Unblock |      718990     12.51%     12.51% |      719052     12.51%     25.03% |      716541     12.47%     37.50% |      717591     12.49%     49.99% |      717743     12.49%     62.48% |      718784     12.51%     74.99% |      718150     12.50%     87.49% |      719083     12.51%    100.00% (Unspecified)
system.caches.L2Cache_Controller.MT_MB.Exclusive_Unblock::total      5745934                       (Unspecified)
system.caches.L2Cache_Controller.MT_IIB.L1_GETS |          67     12.74%     12.74% |          89     16.92%     29.66% |          19      3.61%     33.27% |           0      0.00%     33.27% |           0      0.00%     33.27% |           9      1.71%     34.98% |         341     64.83%     99.81% |           1      0.19%    100.00% (Unspecified)
system.caches.L2Cache_Controller.MT_IIB.L1_GETS::total          526                       (Unspecified)
system.caches.L2Cache_Controller.MT_IIB.WB_Data |          92     22.22%     22.22% |          46     11.11%     33.33% |           0      0.00%     33.33% |           0      0.00%     33.33% |           0      0.00%     33.33% |           0      0.00%     33.33% |         276     66.67%    100.00% |           0      0.00%    100.00% (Unspecified)
system.caches.L2Cache_Controller.MT_IIB.WB_Data::total          414                       (Unspecified)
system.caches.L2Cache_Controller.MT_IIB.WB_Data_clean |         370     28.68%     28.68% |         197     15.27%     43.95% |         191     14.81%     58.76% |         144     11.16%     69.92% |          65      5.04%     74.96% |          48      3.72%     78.68% |         176     13.64%     92.33% |          99      7.67%    100.00% (Unspecified)
system.caches.L2Cache_Controller.MT_IIB.WB_Data_clean::total         1290                       (Unspecified)
system.caches.L2Cache_Controller.MT_SB.L1_GETS |           5     41.67%     41.67% |           6     50.00%     91.67% |           1      8.33%    100.00% |           0      0.00%    100.00% |           0      0.00%    100.00% |           0      0.00%    100.00% |           0      0.00%    100.00% |           0      0.00%    100.00% (Unspecified)
system.caches.L2Cache_Controller.MT_SB.L1_GETS::total           12                       (Unspecified)
system.caches.L2Cache_Controller.MT_SB.L1_UPGRADE |           0      0.00%      0.00% |           0      0.00%      0.00% |           0      0.00%      0.00% |           0      0.00%      0.00% |           0      0.00%      0.00% |           0      0.00%      0.00% |          85    100.00%    100.00% |           0      0.00%    100.00% (Unspecified)
system.caches.L2Cache_Controller.MT_SB.L1_UPGRADE::total           85                       (Unspecified)
system.caches.L2Cache_Controller.MT_SB.Unblock |         462     27.11%     27.11% |         243     14.26%     41.37% |         191     11.21%     52.58% |         144      8.45%     61.03% |          65      3.81%     64.85% |          48      2.82%     67.66% |         452     26.53%     94.19% |          99      5.81%    100.00% (Unspecified)
system.caches.L2Cache_Controller.MT_SB.Unblock::total         1704                       (Unspecified)
system.caches.RequestType.LD.latency_hist_seqr::bucket_size          512                       (Unspecified)
system.caches.RequestType.LD.latency_hist_seqr::max_bucket         5119                       (Unspecified)
system.caches.RequestType.LD.latency_hist_seqr::samples     76391812                       (Unspecified)
system.caches.RequestType.LD.latency_hist_seqr::mean    29.695001                       (Unspecified)
system.caches.RequestType.LD.latency_hist_seqr::gmean     1.442911                       (Unspecified)
system.caches.RequestType.LD.latency_hist_seqr::stdev   128.632225                       (Unspecified)
system.caches.RequestType.LD.latency_hist_seqr |    75304910     98.58%     98.58% |     1015371      1.33%     99.91% |        9937      0.01%     99.92% |       10099      0.01%     99.93% |       44285      0.06%     99.99% |        7015      0.01%    100.00% |         153      0.00%    100.00% |          39      0.00%    100.00% |           3      0.00%    100.00% |           0      0.00%    100.00% (Unspecified)
system.caches.RequestType.LD.latency_hist_seqr::total     76391812                       (Unspecified)
system.caches.RequestType.LD.hit_latency_hist_seqr::bucket_size            1                       (Unspecified)
system.caches.RequestType.LD.hit_latency_hist_seqr::max_bucket            9                       (Unspecified)
system.caches.RequestType.LD.hit_latency_hist_seqr::samples     71796254                       (Unspecified)
system.caches.RequestType.LD.hit_latency_hist_seqr::mean     1.000076                       (Unspecified)
system.caches.RequestType.LD.hit_latency_hist_seqr::gmean     1.000053                       (Unspecified)
system.caches.RequestType.LD.hit_latency_hist_seqr::stdev     0.008738                       (Unspecified)
system.caches.RequestType.LD.hit_latency_hist_seqr |           0      0.00%      0.00% |    71790772     99.99%     99.99% |        5482      0.01%    100.00% |           0      0.00%    100.00% |           0      0.00%    100.00% |           0      0.00%    100.00% |           0      0.00%    100.00% |           0      0.00%    100.00% |           0      0.00%    100.00% |           0      0.00%    100.00% (Unspecified)
system.caches.RequestType.LD.hit_latency_hist_seqr::total     71796254                       (Unspecified)
system.caches.RequestType.LD.miss_latency_hist_seqr::bucket_size          512                       (Unspecified)
system.caches.RequestType.LD.miss_latency_hist_seqr::max_bucket         5119                       (Unspecified)
system.caches.RequestType.LD.miss_latency_hist_seqr::samples      4595558                       (Unspecified)
system.caches.RequestType.LD.miss_latency_hist_seqr::mean   477.994885                       (Unspecified)
system.caches.RequestType.LD.miss_latency_hist_seqr::gmean   443.276667                       (Unspecified)
system.caches.RequestType.LD.miss_latency_hist_seqr::stdev   247.408683                       (Unspecified)
system.caches.RequestType.LD.miss_latency_hist_seqr |     3508656     76.35%     76.35% |     1015371     22.09%     98.44% |        9937      0.22%     98.66% |       10099      0.22%     98.88% |       44285      0.96%     99.84% |        7015      0.15%    100.00% |         153      0.00%    100.00% |          39      0.00%    100.00% |           3      0.00%    100.00% |           0      0.00%    100.00% (Unspecified)
system.caches.RequestType.LD.miss_latency_hist_seqr::total      4595558                       (Unspecified)
system.caches.RequestType.ST.latency_hist_seqr::bucket_size          512                       (Unspecified)
system.caches.RequestType.ST.latency_hist_seqr::max_bucket         5119                       (Unspecified)
system.caches.RequestType.ST.latency_hist_seqr::samples     27299963                       (Unspecified)
system.caches.RequestType.ST.latency_hist_seqr::mean    21.915743                       (Unspecified)
system.caches.RequestType.ST.latency_hist_seqr::gmean     1.300806                       (Unspecified)
system.caches.RequestType.ST.latency_hist_seqr::stdev   111.871891                       (Unspecified)
system.caches.RequestType.ST.latency_hist_seqr |    26985284     98.85%     98.85% |      295393      1.08%     99.93% |        3679      0.01%     99.94% |        2202      0.01%     99.95% |       11349      0.04%     99.99% |        2003      0.01%    100.00% |          40      0.00%    100.00% |          13      0.00%    100.00% |           0      0.00%    100.00% |           0      0.00%    100.00% (Unspecified)
system.caches.RequestType.ST.latency_hist_seqr::total     27299963                       (Unspecified)
system.caches.RequestType.ST.hit_latency_hist_seqr::bucket_size           64                       (Unspecified)
system.caches.RequestType.ST.hit_latency_hist_seqr::max_bucket          639                       (Unspecified)
system.caches.RequestType.ST.hit_latency_hist_seqr::samples     26127304                       (Unspecified)
system.caches.RequestType.ST.hit_latency_hist_seqr::mean     1.000699                       (Unspecified)
system.caches.RequestType.ST.hit_latency_hist_seqr::gmean     1.000349                       (Unspecified)
system.caches.RequestType.ST.hit_latency_hist_seqr::stdev     0.264820                       (Unspecified)
system.caches.RequestType.ST.hit_latency_hist_seqr |    26127286    100.00%    100.00% |           3      0.00%    100.00% |           4      0.00%    100.00% |           3      0.00%    100.00% |           2      0.00%    100.00% |           0      0.00%    100.00% |           1      0.00%    100.00% |           3      0.00%    100.00% |           2      0.00%    100.00% |           0      0.00%    100.00% (Unspecified)
system.caches.RequestType.ST.hit_latency_hist_seqr::total     26127304                       (Unspecified)
system.caches.RequestType.ST.miss_latency_hist_seqr::bucket_size          512                       (Unspecified)
system.caches.RequestType.ST.miss_latency_hist_seqr::max_bucket         5119                       (Unspecified)
system.caches.RequestType.ST.miss_latency_hist_seqr::samples      1172659                       (Unspecified)
system.caches.RequestType.ST.miss_latency_hist_seqr::mean   487.911158                       (Unspecified)
system.caches.RequestType.ST.miss_latency_hist_seqr::gmean   452.411951                       (Unspecified)
system.caches.RequestType.ST.miss_latency_hist_seqr::stdev   253.893705                       (Unspecified)
system.caches.RequestType.ST.miss_latency_hist_seqr |      857982     73.17%     73.17% |      295391     25.19%     98.36% |        3679      0.31%     98.67% |        2202      0.19%     98.86% |       11349      0.97%     99.82% |        2003      0.17%    100.00% |          40      0.00%    100.00% |          13      0.00%    100.00% |           0      0.00%    100.00% |           0      0.00%    100.00% (Unspecified)
system.caches.RequestType.ST.miss_latency_hist_seqr::total      1172659                       (Unspecified)
system.caches.RequestType.IFETCH.latency_hist_seqr::bucket_size          512                       (Unspecified)
system.caches.RequestType.IFETCH.latency_hist_seqr::max_bucket         5119                       (Unspecified)
system.caches.RequestType.IFETCH.latency_hist_seqr::samples     27562623                       (Unspecified)
system.caches.RequestType.IFETCH.latency_hist_seqr::mean     1.333812                       (Unspecified)
system.caches.RequestType.IFETCH.latency_hist_seqr::gmean     1.010765                       (Unspecified)
system.caches.RequestType.IFETCH.latency_hist_seqr::stdev    10.783772                       (Unspecified)
system.caches.RequestType.IFETCH.latency_hist_seqr |    27561307    100.00%    100.00% |        1049      0.00%    100.00% |         107      0.00%    100.00% |         125      0.00%    100.00% |          32      0.00%    100.00% |           3      0.00%    100.00% |           0      0.00%    100.00% |           0      0.00%    100.00% |           0      0.00%    100.00% |           0      0.00%    100.00% (Unspecified)
system.caches.RequestType.IFETCH.latency_hist_seqr::total     27562623                       (Unspecified)
system.caches.RequestType.IFETCH.hit_latency_hist_seqr::bucket_size            1                       (Unspecified)
system.caches.RequestType.IFETCH.hit_latency_hist_seqr::max_bucket            9                       (Unspecified)
system.caches.RequestType.IFETCH.hit_latency_hist_seqr::samples     27484048                       (Unspecified)
system.caches.RequestType.IFETCH.hit_latency_hist_seqr::mean            1                       (Unspecified)
system.caches.RequestType.IFETCH.hit_latency_hist_seqr::gmean            1                       (Unspecified)
system.caches.RequestType.IFETCH.hit_latency_hist_seqr |           0      0.00%      0.00% |    27484048    100.00%    100.00% |           0      0.00%    100.00% |           0      0.00%    100.00% |           0      0.00%    100.00% |           0      0.00%    100.00% |           0      0.00%    100.00% |           0      0.00%    100.00% |           0      0.00%    100.00% |           0      0.00%    100.00% (Unspecified)
system.caches.RequestType.IFETCH.hit_latency_hist_seqr::total     27484048                       (Unspecified)
system.caches.RequestType.IFETCH.miss_latency_hist_seqr::bucket_size          512                       (Unspecified)
system.caches.RequestType.IFETCH.miss_latency_hist_seqr::max_bucket         5119                       (Unspecified)
system.caches.RequestType.IFETCH.miss_latency_hist_seqr::samples        78575                       (Unspecified)
system.caches.RequestType.IFETCH.miss_latency_hist_seqr::mean   118.094954                       (Unspecified)
system.caches.RequestType.IFETCH.miss_latency_hist_seqr::gmean    42.768714                       (Unspecified)
system.caches.RequestType.IFETCH.miss_latency_hist_seqr::stdev   164.682861                       (Unspecified)
system.caches.RequestType.IFETCH.miss_latency_hist_seqr |       77259     98.33%     98.33% |        1049      1.34%     99.66% |         107      0.14%     99.80% |         125      0.16%     99.96% |          32      0.04%    100.00% |           3      0.00%    100.00% |           0      0.00%    100.00% |           0      0.00%    100.00% |           0      0.00%    100.00% |           0      0.00%    100.00% (Unspecified)
system.caches.RequestType.IFETCH.miss_latency_hist_seqr::total        78575                       (Unspecified)
system.caches.RequestType.RMW_Read.latency_hist_seqr::bucket_size          512                       (Unspecified)
system.caches.RequestType.RMW_Read.latency_hist_seqr::max_bucket         5119                       (Unspecified)
system.caches.RequestType.RMW_Read.latency_hist_seqr::samples       188577                       (Unspecified)
system.caches.RequestType.RMW_Read.latency_hist_seqr::mean    20.063931                       (Unspecified)
system.caches.RequestType.RMW_Read.latency_hist_seqr::gmean     1.214396                       (Unspecified)
system.caches.RequestType.RMW_Read.latency_hist_seqr::stdev   137.949681                       (Unspecified)
system.caches.RequestType.RMW_Read.latency_hist_seqr |      185887     98.57%     98.57% |        1847      0.98%     99.55% |         520      0.28%     99.83% |         212      0.11%     99.94% |          51      0.03%     99.97% |          23      0.01%     99.98% |          29      0.02%    100.00% |           8      0.00%    100.00% |           0      0.00%    100.00% |           0      0.00%    100.00% (Unspecified)
system.caches.RequestType.RMW_Read.latency_hist_seqr::total       188577                       (Unspecified)
system.caches.RequestType.RMW_Read.hit_latency_hist_seqr::bucket_size          512                       (Unspecified)
system.caches.RequestType.RMW_Read.hit_latency_hist_seqr::max_bucket         5119                       (Unspecified)
system.caches.RequestType.RMW_Read.hit_latency_hist_seqr::samples       183724                       (Unspecified)
system.caches.RequestType.RMW_Read.hit_latency_hist_seqr::mean     2.738379                       (Unspecified)
system.caches.RequestType.RMW_Read.hit_latency_hist_seqr::gmean     1.035123                       (Unspecified)
system.caches.RequestType.RMW_Read.hit_latency_hist_seqr::stdev    34.048267                       (Unspecified)
system.caches.RequestType.RMW_Read.hit_latency_hist_seqr |      183540     99.90%     99.90% |         167      0.09%     99.99% |           4      0.00%     99.99% |           5      0.00%    100.00% |           7      0.00%    100.00% |           1      0.00%    100.00% |           0      0.00%    100.00% |           0      0.00%    100.00% |           0      0.00%    100.00% |           0      0.00%    100.00% (Unspecified)
system.caches.RequestType.RMW_Read.hit_latency_hist_seqr::total       183724                       (Unspecified)
system.caches.RequestType.RMW_Read.miss_latency_hist_seqr::bucket_size          512                       (Unspecified)
system.caches.RequestType.RMW_Read.miss_latency_hist_seqr::max_bucket         5119                       (Unspecified)
system.caches.RequestType.RMW_Read.miss_latency_hist_seqr::samples         4853                       (Unspecified)
system.caches.RequestType.RMW_Read.miss_latency_hist_seqr::mean   675.971564                       (Unspecified)
system.caches.RequestType.RMW_Read.miss_latency_hist_seqr::gmean   513.452049                       (Unspecified)
system.caches.RequestType.RMW_Read.miss_latency_hist_seqr::stdev   504.034388                       (Unspecified)
system.caches.RequestType.RMW_Read.miss_latency_hist_seqr |        2347     48.36%     48.36% |        1680     34.62%     82.98% |         516     10.63%     93.61% |         207      4.27%     97.88% |          44      0.91%     98.78% |          22      0.45%     99.24% |          29      0.60%     99.84% |           8      0.16%    100.00% |           0      0.00%    100.00% |           0      0.00%    100.00% (Unspecified)
system.caches.RequestType.RMW_Read.miss_latency_hist_seqr::total         4853                       (Unspecified)
system.caches.RequestType.Locked_RMW_Read.latency_hist_seqr::bucket_size          512                       (Unspecified)
system.caches.RequestType.Locked_RMW_Read.latency_hist_seqr::max_bucket         5119                       (Unspecified)
system.caches.RequestType.Locked_RMW_Read.latency_hist_seqr::samples         2668                       (Unspecified)
system.caches.RequestType.Locked_RMW_Read.latency_hist_seqr::mean   276.428036                       (Unspecified)
system.caches.RequestType.Locked_RMW_Read.latency_hist_seqr::gmean     7.497578                       (Unspecified)
system.caches.RequestType.Locked_RMW_Read.latency_hist_seqr::stdev   526.338160                       (Unspecified)
[...]
system.o3Cpu7.iew.squashCycles                   5653                       # Number of cycles IEW is squashing (Cycle)
system.o3Cpu7.iew.blockCycles                  655800                       # Number of cycles IEW is blocking (Cycle)
system.o3Cpu7.iew.unblockCycles              71929014                       # Number of cycles IEW is unblocking (Cycle)
system.o3Cpu7.iew.dispatchedInsts            46000847                       # Number of instructions dispatched to IQ (Count)
system.o3Cpu7.iew.dispSquashedInsts               231                       # Number of squashed instructions skipped by dispatch (Count)
system.o3Cpu7.iew.dispLoadInsts              15316679                       # Number of dispatched load instructions (Count)
system.o3Cpu7.iew.dispStoreInsts              3413879                       # Number of dispatched store instructions (Count)
system.o3Cpu7.iew.dispNonSpecInsts               1751                       # Number of dispatched non-speculative instructions (Count)
system.o3Cpu7.iew.iqFullEvents                   1607                       # Number of times the IQ has become full, causing a stall (Count)
system.o3Cpu7.iew.lsqFullEvents              71925150                       # Number of times the LSQ has become full, causing a stall (Count)
system.o3Cpu7.iew.memOrderViolationEvents          306                       # Number of memory order violations (Count)
system.o3Cpu7.iew.predictedTakenIncorrect         4736                       # Number of branches that were predicted taken incorrectly (Count)
system.o3Cpu7.iew.predictedNotTakenIncorrect          608                       # Number of branches that were predicted not taken incorrectly (Count)
system.o3Cpu7.iew.branchMispredicts              5344                       # Number of branch mispredicts detected at execute (Count)
system.o3Cpu7.iew.instsToCommit              45961640                       # Cumulative count of insts sent to commit (Count)
system.o3Cpu7.iew.writebackCount             45955017                       # Cumulative count of insts written-back (Count)
system.o3Cpu7.iew.producerInst               31548089                       # Number of instructions producing a value (Count)
system.o3Cpu7.iew.consumerInst               47019499                       # Number of instructions consuming a value (Count)
system.o3Cpu7.iew.wbRate                     0.204373                       # Insts written-back per cycle ((Count/Cycle))
system.o3Cpu7.iew.wbFanout                   0.670958                       # Average fanout of values written-back ((Count/Count))
system.o3Cpu7.interrupts.clk_domain.clock         3200                       # Clock period in ticks (Tick)
system.o3Cpu7.lsq0.forwLoads                     8503                       # Number of loads that had data forwarded from stores (Count)
system.o3Cpu7.lsq0.squashedLoads                36603                       # Number of loads squashed (Count)
system.o3Cpu7.lsq0.ignoredResponses                 4                       # Number of memory responses ignored because the instruction is squashed (Count)
system.o3Cpu7.lsq0.memOrderViolation              306                       # Number of memory ordering violations (Count)
system.o3Cpu7.lsq0.squashedStores                1975                       # Number of stores squashed (Count)
system.o3Cpu7.lsq0.rescheduledLoads                39                       # Number of loads that were rescheduled (Count)
system.o3Cpu7.lsq0.blockedByCache                   1                       # Number of times an access to memory failed due to the cache being blocked (Count)
system.o3Cpu7.lsq0.loadToUse::samples        15280060                       # Distribution of cycle latency between the first time a load is issued and its completion (Unspecified)
system.o3Cpu7.lsq0.loadToUse::mean          40.502443                       # Distribution of cycle latency between the first time a load is issued and its completion (Unspecified)
system.o3Cpu7.lsq0.loadToUse::stdev        145.289734                       # Distribution of cycle latency between the first time a load is issued and its completion (Unspecified)
system.o3Cpu7.lsq0.loadToUse::0-9            14027189     91.80%     91.80% # Distribution of cycle latency between the first time a load is issued and its completion (Unspecified)
system.o3Cpu7.lsq0.loadToUse::10-19              4577      0.03%     91.83% # Distribution of cycle latency between the first time a load is issued and its completion (Unspecified)
system.o3Cpu7.lsq0.loadToUse::20-29              6738      0.04%     91.87% # Distribution of cycle latency between the first time a load is issued and its completion (Unspecified)
system.o3Cpu7.lsq0.loadToUse::30-39              6070      0.04%     91.91% # Distribution of cycle latency between the first time a load is issued and its completion (Unspecified)
system.o3Cpu7.lsq0.loadToUse::40-49              2879      0.02%     91.93% # Distribution of cycle latency between the first time a load is issued and its completion (Unspecified)
system.o3Cpu7.lsq0.loadToUse::50-59              2473      0.02%     91.95% # Distribution of cycle latency between the first time a load is issued and its completion (Unspecified)
system.o3Cpu7.lsq0.loadToUse::60-69              3665      0.02%     91.97% # Distribution of cycle latency between the first time a load is issued and its completion (Unspecified)
system.o3Cpu7.lsq0.loadToUse::70-79              4287      0.03%     92.00% # Distribution of cycle latency between the first time a load is issued and its completion (Unspecified)
system.o3Cpu7.lsq0.loadToUse::80-89              2884      0.02%     92.02% # Distribution of cycle latency between the first time a load is issued and its completion (Unspecified)
system.o3Cpu7.lsq0.loadToUse::90-99              1968      0.01%     92.03% # Distribution of cycle latency between the first time a load is issued and its completion (Unspecified)
system.o3Cpu7.lsq0.loadToUse::100-109            1513      0.01%     92.04% # Distribution of cycle latency between the first time a load is issued and its completion (Unspecified)
system.o3Cpu7.lsq0.loadToUse::110-119            1872      0.01%     92.06% # Distribution of cycle latency between the first time a load is issued and its completion (Unspecified)
system.o3Cpu7.lsq0.loadToUse::120-129            1698      0.01%     92.07% # Distribution of cycle latency between the first time a load is issued and its completion (Unspecified)
system.o3Cpu7.lsq0.loadToUse::130-139            1900      0.01%     92.08% # Distribution of cycle latency between the first time a load is issued and its completion (Unspecified)
system.o3Cpu7.lsq0.loadToUse::140-149            1507      0.01%     92.09% # Distribution of cycle latency between the first time a load is issued and its completion (Unspecified)
system.o3Cpu7.lsq0.loadToUse::150-159            1601      0.01%     92.10% # Distribution of cycle latency between the first time a load is issued and its completion (Unspecified)
system.o3Cpu7.lsq0.loadToUse::160-169            1730      0.01%     92.11% # Distribution of cycle latency between the first time a load is issued and its completion (Unspecified)
system.o3Cpu7.lsq0.loadToUse::170-179            1502      0.01%     92.12% # Distribution of cycle latency between the first time a load is issued and its completion (Unspecified)
system.o3Cpu7.lsq0.loadToUse::180-189            1782      0.01%     92.13% # Distribution of cycle latency between the first time a load is issued and its completion (Unspecified)
system.o3Cpu7.lsq0.loadToUse::190-199            1530      0.01%     92.14% # Distribution of cycle latency between the first time a load is issued and its completion (Unspecified)
system.o3Cpu7.lsq0.loadToUse::200-209            2614      0.02%     92.16% # Distribution of cycle latency between the first time a load is issued and its completion (Unspecified)
system.o3Cpu7.lsq0.loadToUse::210-219            6529      0.04%     92.20% # Distribution of cycle latency between the first time a load is issued and its completion (Unspecified)
system.o3Cpu7.lsq0.loadToUse::220-229            4256      0.03%     92.23% # Distribution of cycle latency between the first time a load is issued and its completion (Unspecified)
system.o3Cpu7.lsq0.loadToUse::230-239            5901      0.04%     92.27% # Distribution of cycle latency between the first time a load is issued and its completion (Unspecified)
system.o3Cpu7.lsq0.loadToUse::240-249            5278      0.03%     92.30% # Distribution of cycle latency between the first time a load is issued and its completion (Unspecified)
system.o3Cpu7.lsq0.loadToUse::250-259            6061      0.04%     92.34% # Distribution of cycle latency between the first time a load is issued and its completion (Unspecified)
system.o3Cpu7.lsq0.loadToUse::260-269            6685      0.04%     92.39% # Distribution of cycle latency between the first time a load is issued and its completion (Unspecified)
system.o3Cpu7.lsq0.loadToUse::270-279            6138      0.04%     92.43% # Distribution of cycle latency between the first time a load is issued and its completion (Unspecified)
system.o3Cpu7.lsq0.loadToUse::280-289            8774      0.06%     92.48% # Distribution of cycle latency between the first time a load is issued and its completion (Unspecified)
system.o3Cpu7.lsq0.loadToUse::290-299            8085      0.05%     92.54% # Distribution of cycle latency between the first time a load is issued and its completion (Unspecified)
system.o3Cpu7.lsq0.loadToUse::overflows       1140374      7.46%    100.00% # Distribution of cycle latency between the first time a load is issued and its completion (Unspecified)
system.o3Cpu7.lsq0.loadToUse::min_value             2                       # Distribution of cycle latency between the first time a load is issued and its completion (Unspecified)
system.o3Cpu7.lsq0.loadToUse::max_value          4118                       # Distribution of cycle latency between the first time a load is issued and its completion (Unspecified)
system.o3Cpu7.lsq0.loadToUse::total          15280060                       # Distribution of cycle latency between the first time a load is issued and its completion (Unspecified)
system.o3Cpu7.mmu.dtb.rdAccesses             15310444                       # TLB accesses on read requests (Count)
system.o3Cpu7.mmu.dtb.wrAccesses              3413781                       # TLB accesses on write requests (Count)
system.o3Cpu7.mmu.dtb.rdMisses                   2271                       # TLB misses on read requests (Count)
system.o3Cpu7.mmu.dtb.wrMisses                   1053                       # TLB misses on write requests (Count)
system.o3Cpu7.mmu.dtb.walker.power_state.pwrStateResidencyTicks::UNDEFINED  45985998400                       # Cumulative time (in ticks) in various power states (Tick)
system.o3Cpu7.mmu.itb.rdAccesses                    0                       # TLB accesses on read requests (Count)
system.o3Cpu7.mmu.itb.wrAccesses              3445458                       # TLB accesses on write requests (Count)
system.o3Cpu7.mmu.itb.rdMisses                      0                       # TLB misses on read requests (Count)
system.o3Cpu7.mmu.itb.wrMisses                     81                       # TLB misses on write requests (Count)
system.o3Cpu7.mmu.itb.walker.power_state.pwrStateResidencyTicks::UNDEFINED  45985998400                       # Cumulative time (in ticks) in various power states (Tick)
system.o3Cpu7.power_state.pwrStateResidencyTicks::OFF  45985998400                       # Cumulative time (in ticks) in various power states (Tick)
system.o3Cpu7.rename.squashCycles                5653                       # Number of cycles rename is squashing (Cycle)
system.o3Cpu7.rename.idleCycles               3675530                       # Number of cycles rename is idle (Cycle)
system.o3Cpu7.rename.blockCycles             73208857                       # Number of cycles rename is blocking (Cycle)
system.o3Cpu7.rename.serializeStallCycles       293545                       # count of cycles rename stalled for serializing inst (Cycle)
system.o3Cpu7.rename.runCycles               11696879                       # Number of cycles rename is running (Cycle)
system.o3Cpu7.rename.unblockCycles          135701337                       # Number of cycles rename is unblocking (Cycle)
system.o3Cpu7.rename.renamedInsts            46019392                       # Number of instructions processed by rename (Count)
system.o3Cpu7.rename.ROBFullEvents              41622                       # Number of times rename has blocked due to ROB full (Count)
system.o3Cpu7.rename.IQFullEvents              247536                       # Number of times rename has blocked due to IQ full (Count)
system.o3Cpu7.rename.LQFullEvents           111598556                       # Number of times rename has blocked due to LQ full (Count)
system.o3Cpu7.rename.SQFullEvents            23604007                       # Number of times rename has blocked due to SQ full (Count)
system.o3Cpu7.rename.renamedOperands         58831100                       # Number of destination operands rename has renamed (Count)
system.o3Cpu7.rename.lookups                147474528                       # Number of register rename lookups that rename has made (Count)
system.o3Cpu7.rename.intLookups              46286694                       # Number of integer rename lookups (Count)
system.o3Cpu7.rename.fpLookups               56010091                       # Number of floating rename lookups (Count)
system.o3Cpu7.rename.committedMaps           58707274                       # Number of HB maps that are committed (Count)
system.o3Cpu7.rename.undoneMaps                123730                       # Number of HB maps that are undone due to squashing (Count)
system.o3Cpu7.rename.serializing                 1743                       # count of serializing insts renamed (Count)
system.o3Cpu7.rename.tempSerializing             1730                       # count of temporary serializing insts renamed (Count)
system.o3Cpu7.rename.skidInsts                4967032                       # count of insts added to the skid buffer (Count)
system.o3Cpu7.rob.reads                     260747135                       # The number of ROB reads (Count)
system.o3Cpu7.rob.writes                     92020931                       # The number of ROB writes (Count)
system.o3Cpu7.thread_0.numInsts              22741190                       # Number of Instructions committed (Count)
system.o3Cpu7.thread_0.numOps                45923349                       # Number of Ops committed (Count)
system.o3Cpu7.thread_0.numMemRefs                   0                       # Number of Memory References (Count)
system.pc.bad_addr.power_state.pwrStateResidencyTicks::UNDEFINED  45985998400                       # Cumulative time (in ticks) in various power states (Tick)
system.pc.com_1.power_state.pwrStateResidencyTicks::UNDEFINED  45985998400                       # Cumulative time (in ticks) in various power states (Tick)
system.pc.default_bus.power_state.pwrStateResidencyTicks::UNDEFINED  45985998400                       # Cumulative time (in ticks) in various power states (Tick)
system.pc.empty_isa.power_state.pwrStateResidencyTicks::UNDEFINED  45985998400                       # Cumulative time (in ticks) in various power states (Tick)
system.pc.fake_com_2.power_state.pwrStateResidencyTicks::UNDEFINED  45985998400                       # Cumulative time (in ticks) in various power states (Tick)
system.pc.fake_com_3.power_state.pwrStateResidencyTicks::UNDEFINED  45985998400                       # Cumulative time (in ticks) in various power states (Tick)
system.pc.fake_com_4.power_state.pwrStateResidencyTicks::UNDEFINED  45985998400                       # Cumulative time (in ticks) in various power states (Tick)
system.pc.fake_floppy.power_state.pwrStateResidencyTicks::UNDEFINED  45985998400                       # Cumulative time (in ticks) in various power states (Tick)
system.pc.pci_host.power_state.pwrStateResidencyTicks::UNDEFINED  45985998400                       # Cumulative time (in ticks) in various power states (Tick)
system.pc.south_bridge.cmos.power_state.pwrStateResidencyTicks::UNDEFINED  45985998400                       # Cumulative time (in ticks) in various power states (Tick)
system.pc.south_bridge.dma1.power_state.pwrStateResidencyTicks::UNDEFINED  45985998400                       # Cumulative time (in ticks) in various power states (Tick)
system.pc.south_bridge.ide.disks0.IdeDisk.dmaReadFullPages            0                       # Number of full page size DMA reads (not PRD). (Count)
system.pc.south_bridge.ide.disks0.IdeDisk.dmaReadBytes            0                       # Number of bytes transfered via DMA reads (not PRD). (Byte)
system.pc.south_bridge.ide.disks0.IdeDisk.dmaReadTxs            0                       # Number of DMA read transactions (not PRD). (Count)
system.pc.south_bridge.ide.disks0.IdeDisk.dmaWriteFullPages            0                       # Number of full page size DMA writes. (Count)
system.pc.south_bridge.ide.disks0.IdeDisk.dmaWriteBytes            0                       # Number of bytes transfered via DMA writes. (Byte)
system.pc.south_bridge.ide.disks0.IdeDisk.dmaWriteTxs            0                       # Number of DMA write transactions. (Count)
system.pc.south_bridge.ide.disks1.IdeDisk.dmaReadFullPages            0                       # Number of full page size DMA reads (not PRD). (Count)
system.pc.south_bridge.ide.disks1.IdeDisk.dmaReadBytes            0                       # Number of bytes transfered via DMA reads (not PRD). (Byte)
system.pc.south_bridge.ide.disks1.IdeDisk.dmaReadTxs            0                       # Number of DMA read transactions (not PRD). (Count)
system.pc.south_bridge.ide.disks1.IdeDisk.dmaWriteFullPages            0                       # Number of full page size DMA writes. (Count)
system.pc.south_bridge.ide.disks1.IdeDisk.dmaWriteBytes            0                       # Number of bytes transfered via DMA writes. (Byte)
system.pc.south_bridge.ide.disks1.IdeDisk.dmaWriteTxs            0                       # Number of DMA write transactions. (Count)
system.pc.south_bridge.ide.power_state.pwrStateResidencyTicks::UNDEFINED  45985998400                       # Cumulative time (in ticks) in various power states (Tick)
system.pc.south_bridge.io_apic.power_state.pwrStateResidencyTicks::UNDEFINED  45985998400                       # Cumulative time (in ticks) in various power states (Tick)
system.pc.south_bridge.keyboard.power_state.pwrStateResidencyTicks::UNDEFINED  45985998400                       # Cumulative time (in ticks) in various power states (Tick)
system.pc.south_bridge.pic1.power_state.pwrStateResidencyTicks::UNDEFINED  45985998400                       # Cumulative time (in ticks) in various power states (Tick)
system.pc.south_bridge.pic2.power_state.pwrStateResidencyTicks::UNDEFINED  45985998400                       # Cumulative time (in ticks) in various power states (Tick)
system.pc.south_bridge.pit.power_state.pwrStateResidencyTicks::UNDEFINED  45985998400                       # Cumulative time (in ticks) in various power states (Tick)
system.pc.south_bridge.speaker.power_state.pwrStateResidencyTicks::UNDEFINED  45985998400                       # Cumulative time (in ticks) in various power states (Tick)
system.workload.inst.arm                            0                       # number of arm instructions executed (Count)
system.workload.inst.quiesce                        0                       # number of quiesce instructions executed (Count)

---------- End Simulation Statistics   ----------
