
---------- Begin Simulation Statistics ----------
simSeconds                                   0.079285                       # Number of seconds simulated (Second)
simTicks                                  79284680440                       # Number of ticks simulated (Tick)
finalTick                                155137504701600                       # Number of ticks from beginning of simulation (restored from checkpoints and never reset) (Tick)
simFreq                                  1000000000000                       # The number of ticks per simulated second ((Tick/Second))
hostSeconds                                   7458.02                       # Real time elapsed on the host (Second)
hostTickRate                                 10630792                       # The number of ticks simulated per host second (ticks/s) ((Tick/Second))
hostMemory                                   19860824                       # Number of bytes of host memory used (Byte)
simInsts                                    183706373                       # Number of instructions simulated (Count)
simOps                                      371121373                       # Number of ops (including micro ops) simulated (Count)
hostInstRate                                    24632                       # Simulator instruction rate (inst/s) ((Count/Second))
hostOpRate                                      49761                       # Simulator op (including micro ops) rate (op/s) ((Count/Second))
system.caches.delayHistogram::bucket_size           16                       # delay histogram for all message (Unspecified)
system.caches.delayHistogram::max_bucket          159                       # delay histogram for all message (Unspecified)
system.caches.delayHistogram::samples        40995390                       # delay histogram for all message (Unspecified)
system.caches.delayHistogram::mean           0.281715                       # delay histogram for all message (Unspecified)
system.caches.delayHistogram::stdev          1.466504                       # delay histogram for all message (Unspecified)
system.caches.delayHistogram             |    40985081     99.97%     99.97% |        9798      0.02%    100.00% |         415      0.00%    100.00% |          65      0.00%    100.00% |          30      0.00%    100.00% |           1      0.00%    100.00% |           0      0.00%    100.00% |           0      0.00%    100.00% |           0      0.00%    100.00% |           0      0.00%    100.00% # delay histogram for all message (Unspecified)
system.caches.delayHistogram::total          40995390                       # delay histogram for all message (Unspecified)
system.caches.m_outstandReqHistSeqr::bucket_size            2                       (Unspecified)
system.caches.m_outstandReqHistSeqr::max_bucket           19                       (Unspecified)
system.caches.m_outstandReqHistSeqr::samples    132302777                       (Unspecified)
system.caches.m_outstandReqHistSeqr::mean     2.719940                       (Unspecified)
system.caches.m_outstandReqHistSeqr::gmean     2.306558                       (Unspecified)
system.caches.m_outstandReqHistSeqr::stdev     1.537442                       (Unspecified)
system.caches.m_outstandReqHistSeqr      |    33706801     25.48%     25.48% |    67103237     50.72%     76.20% |    25211204     19.06%     95.25% |     5042660      3.81%     99.06% |     1218105      0.92%     99.98% |       19108      0.01%    100.00% |        1067      0.00%    100.00% |         518      0.00%    100.00% |          77      0.00%    100.00% |           0      0.00%    100.00% (Unspecified)
system.caches.m_outstandReqHistSeqr::total    132302777                       (Unspecified)
system.caches.m_latencyHistSeqr::bucket_size         1024                       (Unspecified)
system.caches.m_latencyHistSeqr::max_bucket        10239                       (Unspecified)
system.caches.m_latencyHistSeqr::samples    132320665                       (Unspecified)
system.caches.m_latencyHistSeqr::mean       37.824750                       (Unspecified)
system.caches.m_latencyHistSeqr::gmean       1.342247                       (Unspecified)
system.caches.m_latencyHistSeqr::stdev     191.701169                       (Unspecified)
system.caches.m_latencyHistSeqr          |   131149125     99.11%     99.11% |     1035792      0.78%     99.90% |      129102      0.10%     99.99% |        6465      0.00%    100.00% |         176      0.00%    100.00% |           5      0.00%    100.00% |           0      0.00%    100.00% |           0      0.00%    100.00% |           0      0.00%    100.00% |           0      0.00%    100.00% (Unspecified)
system.caches.m_latencyHistSeqr::total      132320665                       (Unspecified)
system.caches.m_hitLatencyHistSeqr::bucket_size          512                       (Unspecified)
system.caches.m_hitLatencyHistSeqr::max_bucket         5119                       (Unspecified)
system.caches.m_hitLatencyHistSeqr::samples    126385862                       (Unspecified)
system.caches.m_hitLatencyHistSeqr::mean     1.006442                       (Unspecified)
system.caches.m_hitLatencyHistSeqr::gmean     1.000185                       (Unspecified)
system.caches.m_hitLatencyHistSeqr::stdev     2.900963                       (Unspecified)
system.caches.m_hitLatencyHistSeqr       |   126385136    100.00%    100.00% |         497      0.00%    100.00% |         109      0.00%    100.00% |          52      0.00%    100.00% |          42      0.00%    100.00% |          15      0.00%    100.00% |           9      0.00%    100.00% |           1      0.00%    100.00% |           1      0.00%    100.00% |           0      0.00%    100.00% (Unspecified)
system.caches.m_hitLatencyHistSeqr::total    126385862                       (Unspecified)
system.caches.m_missLatencyHistSeqr::bucket_size         1024                       (Unspecified)
system.caches.m_missLatencyHistSeqr::max_bucket        10239                       (Unspecified)
system.caches.m_missLatencyHistSeqr::samples      5934803                       (Unspecified)
system.caches.m_missLatencyHistSeqr::mean   821.896871                       (Unspecified)
system.caches.m_missLatencyHistSeqr::gmean   705.352341                       (Unspecified)
system.caches.m_missLatencyHistSeqr::stdev   418.970411                       (Unspecified)
system.caches.m_missLatencyHistSeqr      |     4763492     80.26%     80.26% |     1035631     17.45%     97.71% |      129045      2.17%     99.89% |        6455      0.11%    100.00% |         175      0.00%    100.00% |           5      0.00%    100.00% |           0      0.00%    100.00% |           0      0.00%    100.00% |           0      0.00%    100.00% |           0      0.00%    100.00% (Unspecified)
system.caches.m_missLatencyHistSeqr::total      5934803                       (Unspecified)
system.caches.delayVCHist.vnet_0::bucket_size           16                       # delay histogram for vnet_0 (Unspecified)
system.caches.delayVCHist.vnet_0::max_bucket          159                       # delay histogram for vnet_0 (Unspecified)
system.caches.delayVCHist.vnet_0::samples     17326833                       # delay histogram for vnet_0 (Unspecified)
system.caches.delayVCHist.vnet_0::mean       0.607418                       # delay histogram for vnet_0 (Unspecified)
system.caches.delayVCHist.vnet_0::stdev      2.142762                       # delay histogram for vnet_0 (Unspecified)
system.caches.delayVCHist.vnet_0         |    17316999     99.94%     99.94% |        9337      0.05%    100.00% |         401      0.00%    100.00% |          65      0.00%    100.00% |          30      0.00%    100.00% |           1      0.00%    100.00% |           0      0.00%    100.00% |           0      0.00%    100.00% |           0      0.00%    100.00% |           0      0.00%    100.00% # delay histogram for vnet_0 (Unspecified)
system.caches.delayVCHist.vnet_0::total      17326833                       # delay histogram for vnet_0 (Unspecified)
system.caches.delayVCHist.vnet_1::bucket_size            8                       # delay histogram for vnet_1 (Unspecified)
system.caches.delayVCHist.vnet_1::max_bucket           79                       # delay histogram for vnet_1 (Unspecified)
system.caches.delayVCHist.vnet_1::samples     23396369                       # delay histogram for vnet_1 (Unspecified)
system.caches.delayVCHist.vnet_1::mean       0.043782                       # delay histogram for vnet_1 (Unspecified)
system.caches.delayVCHist.vnet_1::stdev      0.481616                       # delay histogram for vnet_1 (Unspecified)
system.caches.delayVCHist.vnet_1         |    23388554     99.97%     99.97% |        7340      0.03%    100.00% |         423      0.00%    100.00% |          38      0.00%    100.00% |          13      0.00%    100.00% |           1      0.00%    100.00% |           0      0.00%    100.00% |           0      0.00%    100.00% |           0      0.00%    100.00% |           0      0.00%    100.00% # delay histogram for vnet_1 (Unspecified)
system.caches.delayVCHist.vnet_1::total      23396369                       # delay histogram for vnet_1 (Unspecified)
system.caches.delayVCHist.vnet_2::bucket_size            1                       # delay histogram for vnet_2 (Unspecified)
system.caches.delayVCHist.vnet_2::max_bucket            9                       # delay histogram for vnet_2 (Unspecified)
system.caches.delayVCHist.vnet_2::samples       272188                       # delay histogram for vnet_2 (Unspecified)
system.caches.delayVCHist.vnet_2::mean       0.000235                       # delay histogram for vnet_2 (Unspecified)
system.caches.delayVCHist.vnet_2::stdev      0.022352                       # delay histogram for vnet_2 (Unspecified)
system.caches.delayVCHist.vnet_2         |      272157     99.99%     99.99% |           0      0.00%     99.99% |          30      0.01%    100.00% |           0      0.00%    100.00% |           1      0.00%    100.00% |           0      0.00%    100.00% |           0      0.00%    100.00% |           0      0.00%    100.00% |           0      0.00%    100.00% |           0      0.00%    100.00% # delay histogram for vnet_2 (Unspecified)
system.caches.delayVCHist.vnet_2::total        272188                       # delay histogram for vnet_2 (Unspecified)
system.caches.L1Cache_Controller.Load    |     9591949     12.45%     12.45% |     9720325     12.62%     25.07% |     9671142     12.56%     37.63% |     9692658     12.58%     50.21% |     9610679     12.48%     62.69% |     9520054     12.36%     75.05% |     9641847     12.52%     87.56% |     9578588     12.44%    100.00% (Unspecified)
system.caches.L1Cache_Controller.Load::total     77027242                       (Unspecified)
system.caches.L1Cache_Controller.Ifetch  |     3459068     12.49%     12.49% |     3458879     12.49%     24.99% |     3457030     12.49%     37.47% |     3454647     12.48%     49.95% |     3454371     12.48%     62.43% |     3466896     12.52%     74.95% |     3462095     12.50%     87.45% |     3474276     12.55%    100.00% (Unspecified)
system.caches.L1Cache_Controller.Ifetch::total     27687262                       (Unspecified)
system.caches.L1Cache_Controller.Store   |     3455703     12.52%     12.52% |     3448323     12.49%     25.01% |     3446346     12.48%     37.49% |     3443734     12.47%     49.97% |     3443361     12.47%     62.44% |     3455609     12.52%     74.96% |     3450515     12.50%     87.46% |     3462584     12.54%    100.00% (Unspecified)
system.caches.L1Cache_Controller.Store::total     27606175                       (Unspecified)
system.caches.L1Cache_Controller.Inv     |       35867     13.32%     13.32% |       38296     14.22%     27.54% |       32506     12.07%     39.61% |       33122     12.30%     51.91% |       32252     11.98%     63.89% |       32325     12.00%     75.89% |       32855     12.20%     88.09% |       32073     11.91%    100.00% (Unspecified)
system.caches.L1Cache_Controller.Inv::total       269296                       (Unspecified)
system.caches.L1Cache_Controller.L1_Replacement |      722724     12.55%     12.55% |      718230     12.48%     25.03% |      718986     12.49%     37.52% |      717520     12.46%     49.98% |      717511     12.46%     62.45% |      721223     12.53%     74.97% |      719697     12.50%     87.48% |      721024     12.52%    100.00% (Unspecified)
system.caches.L1Cache_Controller.L1_Replacement::total      5756915                       (Unspecified)
system.caches.L1Cache_Controller.Fwd_GETX |           0      0.00%      0.00% |          10     41.67%     41.67% |          12     50.00%     91.67% |           2      8.33%    100.00% |           0      0.00%    100.00% |           0      0.00%    100.00% |           0      0.00%    100.00% |           0      0.00%    100.00% (Unspecified)
system.caches.L1Cache_Controller.Fwd_GETX::total           24                       (Unspecified)
system.caches.L1Cache_Controller.Fwd_GETS |        1761     61.40%     61.40% |         419     14.61%     76.01% |         276      9.62%     85.63% |          63      2.20%     87.83% |          47      1.64%     89.47% |          37      1.29%     90.76% |          44      1.53%     92.29% |         221      7.71%    100.00% (Unspecified)
system.caches.L1Cache_Controller.Fwd_GETS::total         2868                       (Unspecified)
system.caches.L1Cache_Controller.Data    |          59    100.00%    100.00% |           0      0.00%    100.00% |           0      0.00%    100.00% |           0      0.00%    100.00% |           0      0.00%    100.00% |           0      0.00%    100.00% |           0      0.00%    100.00% |           0      0.00%    100.00% (Unspecified)
system.caches.L1Cache_Controller.Data::total           59                       (Unspecified)
system.caches.L1Cache_Controller.Data_Exclusive |      572838     12.50%     12.50% |      572470     12.49%     24.99% |      572100     12.49%     37.48% |      571858     12.48%     49.96% |      571325     12.47%     62.43% |      574091     12.53%     74.96% |      572946     12.50%     87.46% |      574660     12.54%    100.00% (Unspecified)
system.caches.L1Cache_Controller.Data_Exclusive::total      4582288                       (Unspecified)
system.caches.L1Cache_Controller.DataS_fromL1 |          76      2.65%      2.65% |        1426     49.72%     52.37% |         699     24.37%     76.74% |         270      9.41%     86.16% |         161      5.61%     91.77% |         101      3.52%     95.29% |          97      3.38%     98.68% |          38      1.32%    100.00% (Unspecified)
system.caches.L1Cache_Controller.DataS_fromL1::total         2868                       (Unspecified)
system.caches.L1Cache_Controller.Data_all_Acks |      171114     12.68%     12.68% |      167012     12.38%     25.06% |      168076     12.46%     37.52% |      168326     12.48%     50.00% |      168433     12.48%     62.48% |      168640     12.50%     74.98% |      168680     12.50%     87.48% |      168878     12.52%    100.00% (Unspecified)
system.caches.L1Cache_Controller.Data_all_Acks::total      1349159                       (Unspecified)
system.caches.L1Cache_Controller.Ack     |        1561    100.00%    100.00% |           0      0.00%    100.00% |           0      0.00%    100.00% |           0      0.00%    100.00% |           0      0.00%    100.00% |           0      0.00%    100.00% |           0      0.00%    100.00% |           0      0.00%    100.00% (Unspecified)
system.caches.L1Cache_Controller.Ack::total         1561                       (Unspecified)
system.caches.L1Cache_Controller.Ack_all |         488    100.00%    100.00% |           0      0.00%    100.00% |           0      0.00%    100.00% |           0      0.00%    100.00% |           0      0.00%    100.00% |           0      0.00%    100.00% |           0      0.00%    100.00% |           0      0.00%    100.00% (Unspecified)
system.caches.L1Cache_Controller.Ack_all::total          488                       (Unspecified)
system.caches.L1Cache_Controller.WB_Ack  |      704943     12.54%     12.54% |      696646     12.39%     24.93% |      702456     12.50%     37.43% |      701480     12.48%     49.91% |      701921     12.49%     62.40% |      704972     12.54%     74.94% |      703271     12.51%     87.45% |      705340     12.55%    100.00% (Unspecified)
system.caches.L1Cache_Controller.WB_Ack::total      5621029                       (Unspecified)
system.caches.L1Cache_Controller.NP.Load |      570335     12.48%     12.48% |      570844     12.49%     24.97% |      571195     12.50%     37.47% |      570144     12.48%     49.95% |      570036     12.47%     62.42% |      572876     12.54%     74.95% |      571763     12.51%     87.47% |      572805     12.53%    100.00% (Unspecified)
system.caches.L1Cache_Controller.NP.Load::total      4569998                       (Unspecified)
system.caches.L1Cache_Controller.NP.Ifetch |        9653     19.39%     19.39% |        5525     11.10%     30.48% |        5767     11.58%     42.06% |        5761     11.57%     53.64% |        5767     11.58%     65.22% |        5771     11.59%     76.81% |        5778     11.60%     88.41% |        5770     11.59%    100.00% (Unspecified)
system.caches.L1Cache_Controller.NP.Ifetch::total        49792                       (Unspecified)
system.caches.L1Cache_Controller.NP.Store |      142888     12.56%     12.56% |      141888     12.47%     25.04% |      142047     12.49%     37.52% |      141641     12.45%     49.98% |      141734     12.46%     62.44% |      142602     12.54%     74.97% |      142183     12.50%     87.47% |      142477     12.53%    100.00% (Unspecified)
system.caches.L1Cache_Controller.NP.Store::total      1137460                       (Unspecified)
system.caches.L1Cache_Controller.NP.Inv  |        7825     14.69%     14.69% |        6678     12.53%     27.22% |        6521     12.24%     39.46% |        6552     12.30%     51.76% |        6454     12.11%     63.87% |        6580     12.35%     76.22% |        6468     12.14%     88.36% |        6201     11.64%    100.00% (Unspecified)
system.caches.L1Cache_Controller.NP.Inv::total        53279                       (Unspecified)
system.caches.L1Cache_Controller.I.Load  |        7120     12.08%     12.08% |        7578     12.86%     24.94% |        6923     11.75%     36.68% |        7976     13.53%     50.22% |        7461     12.66%     62.87% |        7234     12.27%     75.15% |        7149     12.13%     87.28% |        7499     12.72%    100.00% (Unspecified)
system.caches.L1Cache_Controller.I.Load::total        58940                       (Unspecified)
system.caches.L1Cache_Controller.I.Ifetch |        8458     12.04%     12.04% |        8916     12.69%     24.73% |        8763     12.47%     37.21% |        8818     12.55%     49.76% |        8786     12.51%     62.26% |        8814     12.55%     74.81% |        8846     12.59%     87.40% |        8849     12.60%    100.00% (Unspecified)
system.caches.L1Cache_Controller.I.Ifetch::total        70250                       (Unspecified)
system.caches.L1Cache_Controller.I.Store |        5634     11.75%     11.75% |        6158     12.84%     24.59% |        6182     12.89%     37.49% |        6116     12.76%     50.24% |        6137     12.80%     63.04% |        5537     11.55%     74.59% |        6006     12.53%     87.12% |        6177     12.88%    100.00% (Unspecified)
system.caches.L1Cache_Controller.I.Store::total        47947                       (Unspecified)
system.caches.L1Cache_Controller.I.L1_Replacement |        6684     10.53%     10.53% |       12633     19.89%     30.42% |        7755     12.21%     42.63% |        7229     11.38%     54.01% |        6876     10.83%     64.84% |        7381     11.62%     76.46% |        7704     12.13%     88.59% |        7243     11.41%    100.00% (Unspecified)
system.caches.L1Cache_Controller.I.L1_Replacement::total        63505                       (Unspecified)
system.caches.L1Cache_Controller.S.Load  |       26437      5.60%      5.60% |      102611     21.73%     27.33% |       95813     20.29%     47.62% |       96023     20.34%     67.96% |       66947     14.18%     82.13% |       30141      6.38%     88.52% |       27533      5.83%     94.35% |       26686      5.65%    100.00% (Unspecified)
system.caches.L1Cache_Controller.S.Load::total       472191                       (Unspecified)
system.caches.L1Cache_Controller.S.Ifetch |     3440957     12.48%     12.48% |     3444438     12.49%     24.98% |     3442500     12.49%     37.46% |     3440068     12.48%     49.94% |     3439818     12.48%     62.42% |     3452311     12.52%     74.94% |     3447471     12.51%     87.45% |     3459657     12.55%    100.00% (Unspecified)
system.caches.L1Cache_Controller.S.Ifetch::total     27567220                       (Unspecified)
system.caches.L1Cache_Controller.S.Store |         429    100.00%    100.00% |           0      0.00%    100.00% |           0      0.00%    100.00% |           0      0.00%    100.00% |           0      0.00%    100.00% |           0      0.00%    100.00% |           0      0.00%    100.00% |           0      0.00%    100.00% (Unspecified)
system.caches.L1Cache_Controller.S.Store::total          429                       (Unspecified)
system.caches.L1Cache_Controller.S.Inv   |       12796     13.41%     13.41% |       11699     12.26%     25.67% |       11837     12.40%     38.07% |       11872     12.44%     50.51% |       11863     12.43%     62.94% |       11649     12.21%     75.15% |       11786     12.35%     87.50% |       11933     12.50%    100.00% (Unspecified)
system.caches.L1Cache_Controller.S.Inv::total        95435                       (Unspecified)
system.caches.L1Cache_Controller.S.L1_Replacement |       11096     15.33%     15.33% |        8951     12.37%     27.70% |        8775     12.12%     39.82% |        8811     12.17%     51.99% |        8714     12.04%     64.03% |        8870     12.25%     76.29% |        8722     12.05%     88.34% |        8441     11.66%    100.00% (Unspecified)
system.caches.L1Cache_Controller.S.L1_Replacement::total        72380                       (Unspecified)
system.caches.L1Cache_Controller.E.Load  |     6459653     12.49%     12.49% |     6518995     12.60%     25.09% |     6473808     12.51%     37.60% |     6500961     12.57%     50.16% |     6446093     12.46%     62.62% |     6384513     12.34%     74.96% |     6511106     12.59%     87.55% |     6441133     12.45%    100.00% (Unspecified)
system.caches.L1Cache_Controller.E.Load::total     51736262                       (Unspecified)
system.caches.L1Cache_Controller.E.Store |        7157     13.68%     13.68% |        6564     12.54%     26.22% |        6166     11.78%     38.00% |        6555     12.53%     50.52% |        6418     12.26%     62.79% |        6674     12.75%     75.54% |        6384     12.20%     87.74% |        6417     12.26%    100.00% (Unspecified)
system.caches.L1Cache_Controller.E.Store::total        52335                       (Unspecified)
system.caches.L1Cache_Controller.E.Inv   |        3315     14.40%     14.40% |        7599     33.01%     47.41% |        2185      9.49%     56.91% |        1919      8.34%     65.24% |        1544      6.71%     71.95% |        1983      8.61%     80.56% |        2548     11.07%     91.63% |        1926      8.37%    100.00% (Unspecified)
system.caches.L1Cache_Controller.E.Inv::total        23019                       (Unspecified)
system.caches.L1Cache_Controller.E.L1_Replacement |      558162     12.45%     12.45% |      555180     12.39%     24.84% |      560675     12.51%     37.35% |      560369     12.50%     49.85% |      560367     12.50%     62.36% |      562879     12.56%     74.92% |      561102     12.52%     87.44% |      563047     12.56%    100.00% (Unspecified)
system.caches.L1Cache_Controller.E.L1_Replacement::total      4481781                       (Unspecified)
system.caches.L1Cache_Controller.E.Fwd_GETX |           0      0.00%      0.00% |          10     41.67%     41.67% |          12     50.00%     91.67% |           2      8.33%    100.00% |           0      0.00%    100.00% |           0      0.00%    100.00% |           0      0.00%    100.00% |           0      0.00%    100.00% (Unspecified)
system.caches.L1Cache_Controller.E.Fwd_GETX::total           24                       (Unspecified)
system.caches.L1Cache_Controller.E.Fwd_GETS |        1065     49.03%     49.03% |         419     19.29%     68.32% |         276     12.71%     81.03% |          63      2.90%     83.93% |          47      2.16%     86.10% |          37      1.70%     87.80% |          44      2.03%     89.83% |         221     10.17%    100.00% (Unspecified)
system.caches.L1Cache_Controller.E.Fwd_GETS::total         2172                       (Unspecified)
system.caches.L1Cache_Controller.M.Load  |     2528403     12.52%     12.52% |     2520297     12.48%     25.01% |     2523403     12.50%     37.50% |     2517554     12.47%     49.97% |     2520142     12.48%     62.46% |     2525290     12.51%     74.96% |     2524296     12.50%     87.47% |     2530465     12.53%    100.00% (Unspecified)
system.caches.L1Cache_Controller.M.Load::total     20189850                       (Unspecified)
system.caches.L1Cache_Controller.M.Store |     3299595     12.51%     12.51% |     3293713     12.49%     25.00% |     3291951     12.48%     37.49% |     3289422     12.48%     49.96% |     3289072     12.47%     62.44% |     3300796     12.52%     74.96% |     3295942     12.50%     87.46% |     3307513     12.54%    100.00% (Unspecified)
system.caches.L1Cache_Controller.M.Store::total     26368004                       (Unspecified)
system.caches.L1Cache_Controller.M.Inv   |       11931     12.27%     12.27% |       12270     12.62%     24.89% |       11872     12.21%     37.10% |       12680     13.04%     50.14% |       12313     12.66%     62.81% |       12101     12.45%     75.25% |       12051     12.39%     87.65% |       12011     12.35%    100.00% (Unspecified)
system.caches.L1Cache_Controller.M.Inv::total        97229                       (Unspecified)
system.caches.L1Cache_Controller.M.L1_Replacement |      146781     12.88%     12.88% |      141466     12.42%     25.30% |      141781     12.45%     37.75% |      141111     12.39%     50.13% |      141554     12.43%     62.56% |      142093     12.47%     75.03% |      142169     12.48%     87.51% |      142293     12.49%    100.00% (Unspecified)
system.caches.L1Cache_Controller.M.L1_Replacement::total      1139248                       (Unspecified)
system.caches.L1Cache_Controller.M.Fwd_GETS |         696    100.00%    100.00% |           0      0.00%    100.00% |           0      0.00%    100.00% |           0      0.00%    100.00% |           0      0.00%    100.00% |           0      0.00%    100.00% |           0      0.00%    100.00% |           0      0.00%    100.00% (Unspecified)
system.caches.L1Cache_Controller.M.Fwd_GETS::total          696                       (Unspecified)
system.caches.L1Cache_Controller.IS.Inv  |           0      0.00%      0.00% |          50     15.02%     15.02% |          90     27.03%     42.04% |          99     29.73%     71.77% |          78     23.42%     95.20% |          12      3.60%     98.80% |           2      0.60%     99.40% |           2      0.60%    100.00% (Unspecified)
system.caches.L1Cache_Controller.IS.Inv::total          333                       (Unspecified)
system.caches.L1Cache_Controller.IS.L1_Replacement |           1    100.00%    100.00% |           0      0.00%    100.00% |           0      0.00%    100.00% |           0      0.00%    100.00% |           0      0.00%    100.00% |           0      0.00%    100.00% |           0      0.00%    100.00% |           0      0.00%    100.00% (Unspecified)
system.caches.L1Cache_Controller.IS.L1_Replacement::total            1                       (Unspecified)
system.caches.L1Cache_Controller.IS.Data_Exclusive |      572838     12.50%     12.50% |      572470     12.49%     24.99% |      572100     12.49%     37.48% |      571858     12.48%     49.96% |      571325     12.47%     62.43% |      574091     12.53%     74.96% |      572946     12.50%     87.46% |      574660     12.54%    100.00% (Unspecified)
system.caches.L1Cache_Controller.IS.Data_Exclusive::total      4582288                       (Unspecified)
system.caches.L1Cache_Controller.IS.DataS_fromL1 |          76      2.65%      2.65% |        1426     49.72%     52.37% |         699     24.37%     76.74% |         270      9.41%     86.16% |         161      5.61%     91.77% |         101      3.52%     95.29% |          97      3.38%     98.68% |          38      1.32%    100.00% (Unspecified)
system.caches.L1Cache_Controller.IS.DataS_fromL1::total         2868                       (Unspecified)
system.caches.L1Cache_Controller.IS.Data_all_Acks |       22652     13.86%     13.86% |       18916     11.57%     25.43% |       19757     12.09%     37.51% |       20470     12.52%     50.03% |       20484     12.53%     62.56% |       20490     12.53%     75.10% |       20490     12.53%     87.63% |       20223     12.37%    100.00% (Unspecified)
system.caches.L1Cache_Controller.IS.Data_all_Acks::total       163482                       (Unspecified)
system.caches.L1Cache_Controller.IM.Data |          59    100.00%    100.00% |           0      0.00%    100.00% |           0      0.00%    100.00% |           0      0.00%    100.00% |           0      0.00%    100.00% |           0      0.00%    100.00% |           0      0.00%    100.00% |           0      0.00%    100.00% (Unspecified)
system.caches.L1Cache_Controller.IM.Data::total           59                       (Unspecified)
system.caches.L1Cache_Controller.IM.Data_all_Acks |      148462     12.52%     12.52% |      148046     12.49%     25.01% |      148229     12.51%     37.52% |      147757     12.47%     49.98% |      147871     12.47%     62.46% |      148138     12.50%     74.96% |      148188     12.50%     87.46% |      148653     12.54%    100.00% (Unspecified)
system.caches.L1Cache_Controller.IM.Data_all_Acks::total      1185344                       (Unspecified)
system.caches.L1Cache_Controller.SM.Ack  |        1561    100.00%    100.00% |           0      0.00%    100.00% |           0      0.00%    100.00% |           0      0.00%    100.00% |           0      0.00%    100.00% |           0      0.00%    100.00% |           0      0.00%    100.00% |           0      0.00%    100.00% (Unspecified)
system.caches.L1Cache_Controller.SM.Ack::total         1561                       (Unspecified)
system.caches.L1Cache_Controller.SM.Ack_all |         488    100.00%    100.00% |           0      0.00%    100.00% |           0      0.00%    100.00% |           0      0.00%    100.00% |           0      0.00%    100.00% |           0      0.00%    100.00% |           0      0.00%    100.00% |           0      0.00%    100.00% (Unspecified)
system.caches.L1Cache_Controller.SM.Ack_all::total          488                       (Unspecified)
system.caches.L1Cache_Controller.IS_I.Data_all_Acks |           0      0.00%      0.00% |          50     15.02%     15.02% |          90     27.03%     42.04% |          99     29.73%     71.77% |          78     23.42%     95.20% |          12      3.60%     98.80% |           2      0.60%     99.40% |           2      0.60%    100.00% (Unspecified)
system.caches.L1Cache_Controller.IS_I.Data_all_Acks::total          333                       (Unspecified)
system.caches.L1Cache_Controller.M_I.Load |           1    100.00%    100.00% |           0      0.00%    100.00% |           0      0.00%    100.00% |           0      0.00%    100.00% |           0      0.00%    100.00% |           0      0.00%    100.00% |           0      0.00%    100.00% |           0      0.00%    100.00% (Unspecified)
system.caches.L1Cache_Controller.M_I.Load::total            1                       (Unspecified)
system.caches.L1Cache_Controller.M_I.Inv |           0      0.00%      0.00% |           0      0.00%      0.00% |           1    100.00%    100.00% |           0      0.00%    100.00% |           0      0.00%    100.00% |           0      0.00%    100.00% |           0      0.00%    100.00% |           0      0.00%    100.00% (Unspecified)
system.caches.L1Cache_Controller.M_I.Inv::total            1                       (Unspecified)
system.caches.L1Cache_Controller.M_I.WB_Ack |      704943     12.54%     12.54% |      696646     12.39%     24.93% |      702455     12.50%     37.43% |      701480     12.48%     49.91% |      701921     12.49%     62.40% |      704972     12.54%     74.94% |      703271     12.51%     87.45% |      705340     12.55%    100.00% (Unspecified)
system.caches.L1Cache_Controller.M_I.WB_Ack::total      5621028                       (Unspecified)
system.caches.L1Cache_Controller.SINK_WB_ACK.WB_Ack |           0      0.00%      0.00% |           0      0.00%      0.00% |           1    100.00%    100.00% |           0      0.00%    100.00% |           0      0.00%    100.00% |           0      0.00%    100.00% |           0      0.00%    100.00% |           0      0.00%    100.00% (Unspecified)
system.caches.L1Cache_Controller.SINK_WB_ACK.WB_Ack::total            1                       (Unspecified)
system.caches.Directory_Controller.Fetch |       18808      0.33%      0.33% |     5765386     99.67%    100.00% (Unspecified)
system.caches.Directory_Controller.Fetch::total      5784194                       (Unspecified)
system.caches.Directory_Controller.Data  |        1413      0.11%      0.11% |     1284717     99.89%    100.00% (Unspecified)
system.caches.Directory_Controller.Data::total      1286130                       (Unspecified)
system.caches.Directory_Controller.Memory_Data |       18808      0.33%      0.33% |     5765373     99.67%    100.00% (Unspecified)
system.caches.Directory_Controller.Memory_Data::total      5784181                       (Unspecified)
system.caches.Directory_Controller.Memory_Ack |        1413      0.11%      0.11% |     1284716     99.89%    100.00% (Unspecified)
system.caches.Directory_Controller.Memory_Ack::total      1286129                       (Unspecified)
system.caches.Directory_Controller.CleanReplacement |       17278      0.38%      0.38% |     4480786     99.62%    100.00% (Unspecified)
system.caches.Directory_Controller.CleanReplacement::total      4498064                       (Unspecified)
system.caches.Directory_Controller.I.Fetch |       18808      0.33%      0.33% |     5765386     99.67%    100.00% (Unspecified)
system.caches.Directory_Controller.I.Fetch::total      5784194                       (Unspecified)
system.caches.Directory_Controller.M.Data |        1413      0.11%      0.11% |     1284717     99.89%    100.00% (Unspecified)
system.caches.Directory_Controller.M.Data::total      1286130                       (Unspecified)
system.caches.Directory_Controller.M.CleanReplacement |       17278      0.38%      0.38% |     4480786     99.62%    100.00% (Unspecified)
system.caches.Directory_Controller.M.CleanReplacement::total      4498064                       (Unspecified)
system.caches.Directory_Controller.IM.Memory_Data |       18808      0.33%      0.33% |     5765373     99.67%    100.00% (Unspecified)
system.caches.Directory_Controller.IM.Memory_Data::total      5784181                       (Unspecified)
system.caches.Directory_Controller.MI.Memory_Ack |        1413      0.11%      0.11% |     1284716     99.89%    100.00% (Unspecified)
system.caches.Directory_Controller.MI.Memory_Ack::total      1286129                       (Unspecified)
system.caches.L2Cache_Controller.L1_GET_INSTR |       15698     13.07%     13.07% |       17024     14.17%     27.24% |       15644     13.02%     40.26% |       10598      8.82%     49.09% |       15887     13.23%     62.31% |       15993     13.31%     75.63% |       14519     12.09%     87.71% |       14759     12.29%    100.00% (Unspecified)
system.caches.L2Cache_Controller.L1_GET_INSTR::total       120122                       (Unspecified)
system.caches.L2Cache_Controller.L1_GETS |      584669     12.62%     12.62% |      580893     12.54%     25.17% |      578940     12.50%     37.67% |      576995     12.46%     50.12% |      577401     12.47%     62.59% |      574676     12.41%     75.00% |      578231     12.48%     87.48% |      579804     12.52%    100.00% (Unspecified)
system.caches.L2Cache_Controller.L1_GETS::total      4631609                       (Unspecified)
system.caches.L2Cache_Controller.L1_GETX |      148752     12.55%     12.55% |      148249     12.50%     25.05% |      146008     12.32%     37.37% |      147286     12.42%     49.79% |      147275     12.42%     62.21% |      150074     12.66%     74.87% |      148791     12.55%     87.42% |      149086     12.58%    100.00% (Unspecified)
system.caches.L2Cache_Controller.L1_GETX::total      1185521                       (Unspecified)
system.caches.L2Cache_Controller.L1_UPGRADE |           6      1.04%      1.04% |          47      8.13%      9.17% |           0      0.00%      9.17% |           0      0.00%      9.17% |           0      0.00%      9.17% |           0      0.00%      9.17% |         525     90.83%    100.00% |           0      0.00%    100.00% (Unspecified)
system.caches.L2Cache_Controller.L1_UPGRADE::total          578                       (Unspecified)
system.caches.L2Cache_Controller.L1_PUTX |      702920     12.51%     12.51% |      703594     12.52%     25.02% |      701155     12.47%     37.50% |      702207     12.49%     49.99% |      702198     12.49%     62.48% |      703144     12.51%     74.99% |      702685     12.50%     87.49% |      703125     12.51%    100.00% (Unspecified)
system.caches.L2Cache_Controller.L1_PUTX::total      5621028                       (Unspecified)
system.caches.L2Cache_Controller.L1_PUTX_old |           0      0.00%      0.00% |           2    100.00%    100.00% |           0      0.00%    100.00% |           0      0.00%    100.00% |           0      0.00%    100.00% |           0      0.00%    100.00% |           0      0.00%    100.00% |           0      0.00%    100.00% (Unspecified)
system.caches.L2Cache_Controller.L1_PUTX_old::total            2                       (Unspecified)
system.caches.L2Cache_Controller.L2_Replacement |      149158     12.55%     12.55% |      148492     12.49%     25.03% |      146784     12.35%     37.38% |      148519     12.49%     49.87% |      147643     12.42%     62.29% |      150081     12.62%     74.91% |      148599     12.50%     87.41% |      149662     12.59%    100.00% (Unspecified)
system.caches.L2Cache_Controller.L2_Replacement::total      1188938                       (Unspecified)
system.caches.L2Cache_Controller.L2_Replacement_clean |      575475     12.52%     12.52% |      576173     12.54%     25.06% |      573583     12.48%     37.54% |      572936     12.47%     50.01% |      574714     12.51%     62.52% |      573836     12.49%     75.01% |      573778     12.49%     87.49% |      574761     12.51%    100.00% (Unspecified)
system.caches.L2Cache_Controller.L2_Replacement_clean::total      4595256                       (Unspecified)
system.caches.L2Cache_Controller.Mem_Data |      724632     12.53%     12.53% |      724663     12.53%     25.06% |      720363     12.45%     37.51% |      721455     12.47%     49.98% |      722356     12.49%     62.47% |      723917     12.52%     74.99% |      722375     12.49%     87.48% |      724420     12.52%    100.00% (Unspecified)
system.caches.L2Cache_Controller.Mem_Data::total      5784181                       (Unspecified)
system.caches.L2Cache_Controller.Mem_Ack |      724632     12.53%     12.53% |      724665     12.53%     25.06% |      720367     12.45%     37.51% |      721455     12.47%     49.98% |      722357     12.49%     62.47% |      723917     12.52%     74.99% |      722377     12.49%     87.48% |      724422     12.52%    100.00% (Unspecified)
system.caches.L2Cache_Controller.Mem_Ack::total      5784192                       (Unspecified)
system.caches.L2Cache_Controller.WB_Data |       12840     13.11%     13.11% |       12368     12.63%     25.74% |       11202     11.44%     37.18% |       11363     11.60%     48.79% |       11546     11.79%     60.58% |       12347     12.61%     73.18% |       13005     13.28%     86.47% |       13254     13.53%    100.00% (Unspecified)
system.caches.L2Cache_Controller.WB_Data::total        97925                       (Unspecified)
system.caches.L2Cache_Controller.WB_Data_clean |         540     24.85%     24.85% |         320     14.73%     39.58% |         353     16.24%     55.82% |         259     11.92%     67.74% |         149      6.86%     74.60% |          86      3.96%     78.55% |         229     10.54%     89.09% |         237     10.91%    100.00% (Unspecified)
system.caches.L2Cache_Controller.WB_Data_clean::total         2173                       (Unspecified)
system.caches.L2Cache_Controller.Ack     |       20629     16.33%     16.33% |       18017     14.27%     30.60% |       16172     12.80%     43.40% |       12262      9.71%     53.11% |       15338     12.14%     65.25% |       14215     11.25%     76.51% |       13594     10.76%     87.27% |       16075     12.73%    100.00% (Unspecified)
system.caches.L2Cache_Controller.Ack::total       126302                       (Unspecified)
system.caches.L2Cache_Controller.Ack_all |        6276     14.22%     14.22% |        6235     14.12%     28.34% |        5194     11.77%     40.11% |        5206     11.79%     51.90% |        5877     13.31%     65.21% |        5688     12.89%     78.10% |        4388      9.94%     88.04% |        5280     11.96%    100.00% (Unspecified)
system.caches.L2Cache_Controller.Ack_all::total        44144                       (Unspecified)
system.caches.L2Cache_Controller.Unblock |         700     24.41%     24.41% |         399     13.91%     38.32% |         353     12.31%     50.63% |         259      9.03%     59.66% |         149      5.20%     64.85% |          86      3.00%     67.85% |         685     23.88%     91.74% |         237      8.26%    100.00% (Unspecified)
system.caches.L2Cache_Controller.Unblock::total         2868                       (Unspecified)
system.caches.L2Cache_Controller.Exclusive_Unblock |      722260     12.52%     12.52% |      722472     12.53%     25.05% |      718091     12.45%     37.50% |      719893     12.48%     49.98% |      720181     12.49%     62.46% |      721974     12.52%     74.98% |      721165     12.50%     87.48% |      722084     12.52%    100.00% (Unspecified)
system.caches.L2Cache_Controller.Exclusive_Unblock::total      5768120                       (Unspecified)
system.caches.L2Cache_Controller.NP.L1_GET_INSTR |        2114     13.28%     13.28% |        2284     14.35%     27.63% |        2020     12.69%     40.31% |        1597     10.03%     50.35% |        2057     12.92%     63.27% |        1936     12.16%     75.43% |        1825     11.46%     86.89% |        2087     13.11%    100.00% (Unspecified)
system.caches.L2Cache_Controller.NP.L1_GET_INSTR::total        15920                       (Unspecified)
system.caches.L2Cache_Controller.NP.L1_GETS |      573859     12.52%     12.52% |      574222     12.53%     25.05% |      572381     12.49%     37.54% |      572640     12.49%     50.03% |      573070     12.50%     62.53% |      572044     12.48%     75.01% |      571924     12.48%     87.49% |      573340     12.51%    100.00% (Unspecified)
system.caches.L2Cache_Controller.NP.L1_GETS::total      4583480                       (Unspecified)
system.caches.L2Cache_Controller.NP.L1_GETX |      148660     12.55%     12.55% |      148159     12.51%     25.05% |      145966     12.32%     37.37% |      147218     12.43%     49.80% |      147230     12.43%     62.22% |      149937     12.66%     74.88% |      148628     12.54%     87.42% |      148996     12.58%    100.00% (Unspecified)
system.caches.L2Cache_Controller.NP.L1_GETX::total      1184794                       (Unspecified)
system.caches.L2Cache_Controller.NP.L1_PUTX_old |           0      0.00%      0.00% |           1    100.00%    100.00% |           0      0.00%    100.00% |           0      0.00%    100.00% |           0      0.00%    100.00% |           0      0.00%    100.00% |           0      0.00%    100.00% |           0      0.00%    100.00% (Unspecified)
system.caches.L2Cache_Controller.NP.L1_PUTX_old::total            1                       (Unspecified)
system.caches.L2Cache_Controller.SS.L1_GET_INSTR |       10530     12.85%     12.85% |       11520     14.05%     26.90% |       11059     13.49%     40.39% |        6990      8.53%     48.92% |       10903     13.30%     62.22% |       10866     13.26%     75.48% |        9838     12.00%     87.48% |       10262     12.52%    100.00% (Unspecified)
system.caches.L2Cache_Controller.SS.L1_GET_INSTR::total        81968                       (Unspecified)
system.caches.L2Cache_Controller.SS.L1_GETS |        8041     23.31%     23.31% |        4789     13.88%     37.19% |        5199     15.07%     52.26% |        3204      9.29%     61.55% |        3242      9.40%     70.95% |        1567      4.54%     75.49% |        3269      9.48%     84.96% |        5187     15.04%    100.00% (Unspecified)
system.caches.L2Cache_Controller.SS.L1_GETS::total        34498                       (Unspecified)
system.caches.L2Cache_Controller.SS.L1_GETX |          30     50.85%     50.85% |           0      0.00%     50.85% |           0      0.00%     50.85% |           0      0.00%     50.85% |           0      0.00%     50.85% |           0      0.00%     50.85% |          29     49.15%    100.00% |           0      0.00%    100.00% (Unspecified)
system.caches.L2Cache_Controller.SS.L1_GETX::total           59                       (Unspecified)
system.caches.L2Cache_Controller.SS.L1_UPGRADE |           6      1.40%      1.40% |          47     10.96%     12.35% |           0      0.00%     12.35% |           0      0.00%     12.35% |           0      0.00%     12.35% |           0      0.00%     12.35% |         376     87.65%    100.00% |           0      0.00%    100.00% (Unspecified)
system.caches.L2Cache_Controller.SS.L1_UPGRADE::total          429                       (Unspecified)
system.caches.L2Cache_Controller.SS.L2_Replacement |         143     50.71%     50.71% |          65     23.05%     73.76% |           0      0.00%     73.76% |           0      0.00%     73.76% |           0      0.00%     73.76% |           0      0.00%     73.76% |          74     26.24%    100.00% |           0      0.00%    100.00% (Unspecified)
system.caches.L2Cache_Controller.SS.L2_Replacement::total          282                       (Unspecified)
system.caches.L2Cache_Controller.SS.L2_Replacement_clean |        3158     15.15%     15.15% |        2958     14.19%     29.34% |        2808     13.47%     42.82% |        2147     10.30%     53.12% |        2600     12.47%     65.59% |        2290     10.99%     76.58% |        2088     10.02%     86.60% |        2794     13.40%    100.00% (Unspecified)
system.caches.L2Cache_Controller.SS.L2_Replacement_clean::total        20843                       (Unspecified)
system.caches.L2Cache_Controller.M.L1_GET_INSTR |          10     14.29%     14.29% |          12     17.14%     31.43% |           9     12.86%     44.29% |           8     11.43%     55.71% |           6      8.57%     64.29% |           7     10.00%     74.29% |           8     11.43%     85.71% |          10     14.29%    100.00% (Unspecified)
system.caches.L2Cache_Controller.M.L1_GET_INSTR::total           70                       (Unspecified)
system.caches.L2Cache_Controller.M.L1_GETS |         207     11.53%     11.53% |         379     21.11%     32.65% |         180     10.03%     42.67% |         278     15.49%     58.16% |         264     14.71%     72.87% |         151      8.41%     81.28% |         168      9.36%     90.64% |         168      9.36%    100.00% (Unspecified)
system.caches.L2Cache_Controller.M.L1_GETS::total         1795                       (Unspecified)
system.caches.L2Cache_Controller.M.L1_GETX |          40      7.55%      7.55% |          77     14.53%     22.08% |          28      5.28%     27.36% |          61     11.51%     38.87% |          31      5.85%     44.72% |         121     22.83%     67.55% |          98     18.49%     86.04% |          74     13.96%    100.00% (Unspecified)
system.caches.L2Cache_Controller.M.L1_GETX::total          530                       (Unspecified)
system.caches.L2Cache_Controller.M.L2_Replacement |      149001     12.54%     12.54% |      148420     12.49%     25.02% |      146784     12.35%     37.37% |      148517     12.49%     49.87% |      147642     12.42%     62.29% |      150074     12.63%     74.91% |      148524     12.50%     87.41% |      149657     12.59%    100.00% (Unspecified)
system.caches.L2Cache_Controller.M.L2_Replacement::total      1188619                       (Unspecified)
system.caches.L2Cache_Controller.M.L2_Replacement_clean |      556676     12.50%     12.50% |      557721     12.52%     25.02% |      557187     12.51%     37.53% |      556369     12.49%     50.02% |      557292     12.51%     62.53% |      555808     12.48%     75.01% |      556916     12.50%     87.51% |      556232     12.49%    100.00% (Unspecified)
system.caches.L2Cache_Controller.M.L2_Replacement_clean::total      4454201                       (Unspecified)
system.caches.L2Cache_Controller.MT.L1_GETS |         700     24.41%     24.41% |         399     13.91%     38.32% |         353     12.31%     50.63% |         259      9.03%     59.66% |         149      5.20%     64.85% |          86      3.00%     67.85% |         685     23.88%     91.74% |         237      8.26%    100.00% (Unspecified)
system.caches.L2Cache_Controller.MT.L1_GETS::total         2868                       (Unspecified)
system.caches.L2Cache_Controller.MT.L1_GETX |          12     50.00%     50.00% |           0      0.00%     50.00% |           0      0.00%     50.00% |           0      0.00%     50.00% |           0      0.00%     50.00% |           0      0.00%     50.00% |          12     50.00%    100.00% |           0      0.00%    100.00% (Unspecified)
system.caches.L2Cache_Controller.MT.L1_GETX::total           24                       (Unspecified)
system.caches.L2Cache_Controller.MT.L1_PUTX |      702920     12.51%     12.51% |      703594     12.52%     25.02% |      701155     12.47%     37.50% |      702207     12.49%     49.99% |      702198     12.49%     62.48% |      703144     12.51%     74.99% |      702685     12.50%     87.49% |      703125     12.51%    100.00% (Unspecified)
system.caches.L2Cache_Controller.MT.L1_PUTX::total      5621028                       (Unspecified)
system.caches.L2Cache_Controller.MT.L2_Replacement |          14     37.84%     37.84% |           7     18.92%     56.76% |           0      0.00%     56.76% |           2      5.41%     62.16% |           1      2.70%     64.86% |           7     18.92%     83.78% |           1      2.70%     86.49% |           5     13.51%    100.00% (Unspecified)
system.caches.L2Cache_Controller.MT.L2_Replacement::total           37                       (Unspecified)
system.caches.L2Cache_Controller.MT.L2_Replacement_clean |       15641     13.01%     13.01% |       15494     12.89%     25.90% |       13588     11.30%     37.20% |       14420     12.00%     49.20% |       14822     12.33%     61.53% |       15738     13.09%     74.62% |       14774     12.29%     86.91% |       15735     13.09%    100.00% (Unspecified)
system.caches.L2Cache_Controller.MT.L2_Replacement_clean::total       120212                       (Unspecified)
system.caches.L2Cache_Controller.M_I.L1_GET_INSTR |           0      0.00%      0.00% |           0      0.00%      0.00% |           0      0.00%      0.00% |           0      0.00%      0.00% |          41     51.25%     51.25% |          39     48.75%    100.00% |           0      0.00%    100.00% |           0      0.00%    100.00% (Unspecified)
system.caches.L2Cache_Controller.M_I.L1_GET_INSTR::total           80                       (Unspecified)
system.caches.L2Cache_Controller.M_I.L1_GETS |          12      7.41%      7.41% |          10      6.17%     13.58% |          15      9.26%     22.84% |          14      8.64%     31.48% |          13      8.02%     39.51% |          15      9.26%     48.77% |          22     13.58%     62.35% |          61     37.65%    100.00% (Unspecified)
system.caches.L2Cache_Controller.M_I.L1_GETS::total          162                       (Unspecified)
system.caches.L2Cache_Controller.M_I.L1_GETX |          10      8.93%      8.93% |          13     11.61%     20.54% |          14     12.50%     33.04% |           7      6.25%     39.29% |          14     12.50%     51.79% |          16     14.29%     66.07% |          22     19.64%     85.71% |          16     14.29%    100.00% (Unspecified)
system.caches.L2Cache_Controller.M_I.L1_GETX::total          112                       (Unspecified)
system.caches.L2Cache_Controller.M_I.Mem_Ack |      724632     12.53%     12.53% |      724665     12.53%     25.06% |      720367     12.45%     37.51% |      721455     12.47%     49.98% |      722357     12.49%     62.47% |      723917     12.52%     74.99% |      722377     12.49%     87.48% |      724422     12.52%    100.00% (Unspecified)
system.caches.L2Cache_Controller.M_I.Mem_Ack::total      5784192                       (Unspecified)
system.caches.L2Cache_Controller.MT_I.WB_Data |          14     37.84%     37.84% |           7     18.92%     56.76% |           0      0.00%     56.76% |           2      5.41%     62.16% |           1      2.70%     64.86% |           7     18.92%     83.78% |           1      2.70%     86.49% |           5     13.51%    100.00% (Unspecified)
system.caches.L2Cache_Controller.MT_I.WB_Data::total           37                       (Unspecified)
system.caches.L2Cache_Controller.MCT_I.L1_PUTX_old |           0      0.00%      0.00% |           1    100.00%    100.00% |           0      0.00%    100.00% |           0      0.00%    100.00% |           0      0.00%    100.00% |           0      0.00%    100.00% |           0      0.00%    100.00% |           0      0.00%    100.00% (Unspecified)
system.caches.L2Cache_Controller.MCT_I.L1_PUTX_old::total            1                       (Unspecified)
system.caches.L2Cache_Controller.MCT_I.WB_Data |       12666     13.03%     13.03% |       12281     12.64%     25.67% |       11202     11.53%     37.19% |       11361     11.69%     48.88% |       11545     11.88%     60.76% |       12340     12.70%     73.46% |       12548     12.91%     86.37% |       13249     13.63%    100.00% (Unspecified)
system.caches.L2Cache_Controller.MCT_I.WB_Data::total        97192                       (Unspecified)
system.caches.L2Cache_Controller.MCT_I.WB_Data_clean |           0      0.00%      0.00% |           1    100.00%    100.00% |           0      0.00%    100.00% |           0      0.00%    100.00% |           0      0.00%    100.00% |           0      0.00%    100.00% |           0      0.00%    100.00% |           0      0.00%    100.00% (Unspecified)
system.caches.L2Cache_Controller.MCT_I.WB_Data_clean::total            1                       (Unspecified)
system.caches.L2Cache_Controller.MCT_I.Ack_all |        2975     12.92%     12.92% |        3212     13.95%     26.88% |        2386     10.37%     37.24% |        3059     13.29%     50.53% |        3277     14.24%     64.77% |        3398     14.76%     79.53% |        2226      9.67%     89.20% |        2486     10.80%    100.00% (Unspecified)
system.caches.L2Cache_Controller.MCT_I.Ack_all::total        23019                       (Unspecified)
system.caches.L2Cache_Controller.I_I.Ack |       19655     15.80%     15.80% |       17589     14.14%     29.94% |       16172     13.00%     42.95% |       12262      9.86%     52.80% |       15338     12.33%     65.13% |       14215     11.43%     76.56% |       13076     10.51%     87.08% |       16075     12.92%    100.00% (Unspecified)
system.caches.L2Cache_Controller.I_I.Ack::total       124382                       (Unspecified)
system.caches.L2Cache_Controller.I_I.Ack_all |        3158     15.15%     15.15% |        2958     14.19%     29.34% |        2808     13.47%     42.82% |        2147     10.30%     53.12% |        2600     12.47%     65.59% |        2290     10.99%     76.58% |        2088     10.02%     86.60% |        2794     13.40%    100.00% (Unspecified)
system.caches.L2Cache_Controller.I_I.Ack_all::total        20843                       (Unspecified)
system.caches.L2Cache_Controller.S_I.Ack |         974     50.73%     50.73% |         428     22.29%     73.02% |           0      0.00%     73.02% |           0      0.00%     73.02% |           0      0.00%     73.02% |           0      0.00%     73.02% |         518     26.98%    100.00% |           0      0.00%    100.00% (Unspecified)
system.caches.L2Cache_Controller.S_I.Ack::total         1920                       (Unspecified)
system.caches.L2Cache_Controller.S_I.Ack_all |         143     50.71%     50.71% |          65     23.05%     73.76% |           0      0.00%     73.76% |           0      0.00%     73.76% |           0      0.00%     73.76% |           0      0.00%     73.76% |          74     26.24%    100.00% |           0      0.00%    100.00% (Unspecified)
system.caches.L2Cache_Controller.S_I.Ack_all::total          282                       (Unspecified)
system.caches.L2Cache_Controller.ISS.L1_GETS |         553     18.57%     18.57% |         410     13.77%     32.34% |         460     15.45%     47.78% |         304     10.21%     57.99% |         413     13.87%     71.86% |         279      9.37%     81.23% |          68      2.28%     83.51% |         491     16.49%    100.00% (Unspecified)
system.caches.L2Cache_Controller.ISS.L1_GETS::total         2978                       (Unspecified)
system.caches.L2Cache_Controller.ISS.L1_GETX |           0      0.00%      0.00% |           0      0.00%      0.00% |           0      0.00%      0.00% |           0      0.00%      0.00% |           0      0.00%      0.00% |           0      0.00%      0.00% |           2    100.00%    100.00% |           0      0.00%    100.00% (Unspecified)
system.caches.L2Cache_Controller.ISS.L1_GETX::total            2                       (Unspecified)
system.caches.L2Cache_Controller.ISS.Mem_Data |      573305     12.52%     12.52% |      573810     12.53%     25.04% |      571918     12.49%     37.53% |      572336     12.50%     50.02% |      572656     12.50%     62.53% |      571765     12.48%     75.01% |      571855     12.48%     87.49% |      572848     12.51%    100.00% (Unspecified)
system.caches.L2Cache_Controller.ISS.Mem_Data::total      4580493                       (Unspecified)
system.caches.L2Cache_Controller.IS.L1_GET_INSTR |        3044     13.78%     13.78% |        3208     14.53%     28.31% |        2556     11.57%     39.88% |        2003      9.07%     48.95% |        2880     13.04%     62.00% |        3145     14.24%     76.24% |        2848     12.90%     89.13% |        2400     10.87%    100.00% (Unspecified)
system.caches.L2Cache_Controller.IS.L1_GET_INSTR::total        22084                       (Unspecified)
system.caches.L2Cache_Controller.IS.L1_GETS |        1039     31.30%     31.30% |         532     16.03%     47.33% |         312      9.40%     56.73% |         295      8.89%     65.62% |         248      7.47%     73.09% |         533     16.06%     89.15% |          47      1.42%     90.57% |         313      9.43%    100.00% (Unspecified)
system.caches.L2Cache_Controller.IS.L1_GETS::total         3319                       (Unspecified)
system.caches.L2Cache_Controller.IS.Mem_Data |        2667     14.11%     14.11% |        2694     14.26%     28.37% |        2480     13.12%     41.49% |        1901     10.06%     51.55% |        2470     13.07%     64.62% |        2215     11.72%     76.34% |        1893     10.02%     86.36% |        2578     13.64%    100.00% (Unspecified)
system.caches.L2Cache_Controller.IS.Mem_Data::total        18898                       (Unspecified)
system.caches.L2Cache_Controller.IM.L1_GETS |           0      0.00%      0.00% |           0      0.00%      0.00% |           0      0.00%      0.00% |           0      0.00%      0.00% |           0      0.00%      0.00% |           0      0.00%      0.00% |           1    100.00%    100.00% |           0      0.00%    100.00% (Unspecified)
system.caches.L2Cache_Controller.IM.L1_GETS::total            1                       (Unspecified)
system.caches.L2Cache_Controller.IM.Mem_Data |      148660     12.55%     12.55% |      148159     12.51%     25.05% |      145965     12.32%     37.37% |      147218     12.43%     49.80% |      147230     12.43%     62.22% |      149937     12.66%     74.88% |      148627     12.54%     87.42% |      148994     12.58%    100.00% (Unspecified)
system.caches.L2Cache_Controller.IM.Mem_Data::total      1184790                       (Unspecified)
system.caches.L2Cache_Controller.SS_MB.L1_GETS |           0      0.00%      0.00% |           0      0.00%      0.00% |           0      0.00%      0.00% |           0      0.00%      0.00% |           0      0.00%      0.00% |           0      0.00%      0.00% |        1014    100.00%    100.00% |           0      0.00%    100.00% (Unspecified)
system.caches.L2Cache_Controller.SS_MB.L1_GETS::total         1014                       (Unspecified)
system.caches.L2Cache_Controller.SS_MB.Exclusive_Unblock |          36      7.38%      7.38% |          47      9.63%     17.01% |           0      0.00%     17.01% |           0      0.00%     17.01% |           0      0.00%     17.01% |           0      0.00%     17.01% |         405     82.99%    100.00% |           0      0.00%    100.00% (Unspecified)
system.caches.L2Cache_Controller.SS_MB.Exclusive_Unblock::total          488                       (Unspecified)
system.caches.L2Cache_Controller.MT_MB.L1_GETS |           6     33.33%     33.33% |           3     16.67%     50.00% |           2     11.11%     61.11% |           1      5.56%     66.67% |           1      5.56%     72.22% |           0      0.00%     72.22% |           3     16.67%     88.89% |           2     11.11%    100.00% (Unspecified)
system.caches.L2Cache_Controller.MT_MB.L1_GETS::total           18                       (Unspecified)
system.caches.L2Cache_Controller.MT_MB.Exclusive_Unblock |      722224     12.52%     12.52% |      722425     12.53%     25.05% |      718091     12.45%     37.50% |      719893     12.48%     49.98% |      720181     12.49%     62.47% |      721974     12.52%     74.98% |      720760     12.50%     87.48% |      722084     12.52%    100.00% (Unspecified)
system.caches.L2Cache_Controller.MT_MB.Exclusive_Unblock::total      5767632                       (Unspecified)
system.caches.L2Cache_Controller.MT_IIB.L1_GETS |         209     14.80%     14.80% |         136      9.63%     24.43% |          38      2.69%     27.12% |           0      0.00%     27.12% |           1      0.07%     27.20% |           1      0.07%     27.27% |        1025     72.59%     99.86% |           2      0.14%    100.00% (Unspecified)
system.caches.L2Cache_Controller.MT_IIB.L1_GETS::total         1412                       (Unspecified)
system.caches.L2Cache_Controller.MT_IIB.WB_Data |         160     22.99%     22.99% |          80     11.49%     34.48% |           0      0.00%     34.48% |           0      0.00%     34.48% |           0      0.00%     34.48% |           0      0.00%     34.48% |         456     65.52%    100.00% |           0      0.00%    100.00% (Unspecified)
system.caches.L2Cache_Controller.MT_IIB.WB_Data::total          696                       (Unspecified)
system.caches.L2Cache_Controller.MT_IIB.WB_Data_clean |         540     24.86%     24.86% |         319     14.69%     39.55% |         353     16.25%     55.80% |         259     11.92%     67.73% |         149      6.86%     74.59% |          86      3.96%     78.55% |         229     10.54%     89.09% |         237     10.91%    100.00% (Unspecified)
system.caches.L2Cache_Controller.MT_IIB.WB_Data_clean::total         2172                       (Unspecified)
system.caches.L2Cache_Controller.MT_SB.L1_GETS |          43     67.19%     67.19% |          13     20.31%     87.50% |           0      0.00%     87.50% |           0      0.00%     87.50% |           0      0.00%     87.50% |           0      0.00%     87.50% |           5      7.81%     95.31% |           3      4.69%    100.00% (Unspecified)
system.caches.L2Cache_Controller.MT_SB.L1_GETS::total           64                       (Unspecified)
system.caches.L2Cache_Controller.MT_SB.L1_UPGRADE |           0      0.00%      0.00% |           0      0.00%      0.00% |           0      0.00%      0.00% |           0      0.00%      0.00% |           0      0.00%      0.00% |           0      0.00%      0.00% |         149    100.00%    100.00% |           0      0.00%    100.00% (Unspecified)
system.caches.L2Cache_Controller.MT_SB.L1_UPGRADE::total          149                       (Unspecified)
system.caches.L2Cache_Controller.MT_SB.Unblock |         700     24.41%     24.41% |         399     13.91%     38.32% |         353     12.31%     50.63% |         259      9.03%     59.66% |         149      5.20%     64.85% |          86      3.00%     67.85% |         685     23.88%     91.74% |         237      8.26%    100.00% (Unspecified)
system.caches.L2Cache_Controller.MT_SB.Unblock::total         2868                       (Unspecified)
system.caches.RequestType.LD.latency_hist_seqr::bucket_size         1024                       (Unspecified)
system.caches.RequestType.LD.latency_hist_seqr::max_bucket        10239                       (Unspecified)
system.caches.RequestType.LD.latency_hist_seqr::samples     77027232                       (Unspecified)
system.caches.RequestType.LD.latency_hist_seqr::mean    51.890203                       (Unspecified)
system.caches.RequestType.LD.latency_hist_seqr::gmean     1.489718                       (Unspecified)
system.caches.RequestType.LD.latency_hist_seqr::stdev   225.245356                       (Unspecified)
system.caches.RequestType.LD.latency_hist_seqr |    76066139     98.75%     98.75% |      848438      1.10%     99.85% |      107156      0.14%     99.99% |        5359      0.01%    100.00% |         136      0.00%    100.00% |           4      0.00%    100.00% |           0      0.00%    100.00% |           0      0.00%    100.00% |           0      0.00%    100.00% |           0      0.00%    100.00% (Unspecified)
system.caches.RequestType.LD.latency_hist_seqr::total     77027232                       (Unspecified)
system.caches.RequestType.LD.hit_latency_hist_seqr::bucket_size            1                       (Unspecified)
system.caches.RequestType.LD.hit_latency_hist_seqr::max_bucket            9                       (Unspecified)
system.caches.RequestType.LD.hit_latency_hist_seqr::samples     72398303                       (Unspecified)
system.caches.RequestType.LD.hit_latency_hist_seqr::mean     1.000094                       (Unspecified)
system.caches.RequestType.LD.hit_latency_hist_seqr::gmean     1.000065                       (Unspecified)
system.caches.RequestType.LD.hit_latency_hist_seqr::stdev     0.009670                       (Unspecified)
system.caches.RequestType.LD.hit_latency_hist_seqr |           0      0.00%      0.00% |    72391533     99.99%     99.99% |        6770      0.01%    100.00% |           0      0.00%    100.00% |           0      0.00%    100.00% |           0      0.00%    100.00% |           0      0.00%    100.00% |           0      0.00%    100.00% |           0      0.00%    100.00% |           0      0.00%    100.00% (Unspecified)
system.caches.RequestType.LD.hit_latency_hist_seqr::total     72398303                       (Unspecified)
system.caches.RequestType.LD.miss_latency_hist_seqr::bucket_size         1024                       (Unspecified)
system.caches.RequestType.LD.miss_latency_hist_seqr::max_bucket        10239                       (Unspecified)
system.caches.RequestType.LD.miss_latency_hist_seqr::samples      4628929                       (Unspecified)
system.caches.RequestType.LD.miss_latency_hist_seqr::mean   847.831892                       (Unspecified)
system.caches.RequestType.LD.miss_latency_hist_seqr::gmean   758.718163                       (Unspecified)
system.caches.RequestType.LD.miss_latency_hist_seqr::stdev   412.589187                       (Unspecified)
system.caches.RequestType.LD.miss_latency_hist_seqr |     3667836     79.24%     79.24% |      848438     18.33%     97.57% |      107156      2.31%     99.88% |        5359      0.12%    100.00% |         136      0.00%    100.00% |           4      0.00%    100.00% |           0      0.00%    100.00% |           0      0.00%    100.00% |           0      0.00%    100.00% |           0      0.00%    100.00% (Unspecified)
system.caches.RequestType.LD.miss_latency_hist_seqr::total      4628929                       (Unspecified)
system.caches.RequestType.ST.latency_hist_seqr::bucket_size         1024                       (Unspecified)
system.caches.RequestType.ST.latency_hist_seqr::max_bucket        10239                       (Unspecified)
system.caches.RequestType.ST.latency_hist_seqr::samples     27398460                       (Unspecified)
system.caches.RequestType.ST.latency_hist_seqr::mean    34.994395                       (Unspecified)
system.caches.RequestType.ST.latency_hist_seqr::gmean     1.327153                       (Unspecified)
system.caches.RequestType.ST.latency_hist_seqr::stdev   179.756884                       (Unspecified)
system.caches.RequestType.ST.latency_hist_seqr |    27192145     99.25%     99.25% |      183957      0.67%     99.92% |       21282      0.08%    100.00% |        1040      0.00%    100.00% |          35      0.00%    100.00% |           1      0.00%    100.00% |           0      0.00%    100.00% |           0      0.00%    100.00% |           0      0.00%    100.00% |           0      0.00%    100.00% (Unspecified)
system.caches.RequestType.ST.latency_hist_seqr::total     27398460                       (Unspecified)
system.caches.RequestType.ST.hit_latency_hist_seqr::bucket_size          512                       (Unspecified)
system.caches.RequestType.ST.hit_latency_hist_seqr::max_bucket         5119                       (Unspecified)
system.caches.RequestType.ST.hit_latency_hist_seqr::samples     26222074                       (Unspecified)
system.caches.RequestType.ST.hit_latency_hist_seqr::mean     1.000858                       (Unspecified)
system.caches.RequestType.ST.hit_latency_hist_seqr::gmean     1.000357                       (Unspecified)
system.caches.RequestType.ST.hit_latency_hist_seqr::stdev     0.652014                       (Unspecified)
system.caches.RequestType.ST.hit_latency_hist_seqr |    26222070    100.00%    100.00% |           2      0.00%    100.00% |           0      0.00%    100.00% |           1      0.00%    100.00% |           0      0.00%    100.00% |           1      0.00%    100.00% |           0      0.00%    100.00% |           0      0.00%    100.00% |           0      0.00%    100.00% |           0      0.00%    100.00% (Unspecified)
system.caches.RequestType.ST.hit_latency_hist_seqr::total     26222074                       (Unspecified)
system.caches.RequestType.ST.miss_latency_hist_seqr::bucket_size         1024                       (Unspecified)
system.caches.RequestType.ST.miss_latency_hist_seqr::max_bucket        10239                       (Unspecified)
system.caches.RequestType.ST.miss_latency_hist_seqr::samples      1176386                       (Unspecified)
system.caches.RequestType.ST.miss_latency_hist_seqr::mean   792.722769                       (Unspecified)
system.caches.RequestType.ST.miss_latency_hist_seqr::gmean   723.466825                       (Unspecified)
system.caches.RequestType.ST.miss_latency_hist_seqr::stdev   390.706128                       (Unspecified)
system.caches.RequestType.ST.miss_latency_hist_seqr |      970073     82.46%     82.46% |      183956     15.64%     98.10% |       21281      1.81%     99.91% |        1040      0.09%    100.00% |          35      0.00%    100.00% |           1      0.00%    100.00% |           0      0.00%    100.00% |           0      0.00%    100.00% |           0      0.00%    100.00% |           0      0.00%    100.00% (Unspecified)
system.caches.RequestType.ST.miss_latency_hist_seqr::total      1176386                       (Unspecified)
system.caches.RequestType.IFETCH.latency_hist_seqr::bucket_size          512                       (Unspecified)
system.caches.RequestType.IFETCH.latency_hist_seqr::max_bucket         5119                       (Unspecified)
system.caches.RequestType.IFETCH.latency_hist_seqr::samples     27687262                       (Unspecified)
system.caches.RequestType.IFETCH.latency_hist_seqr::mean     1.431775                       (Unspecified)
system.caches.RequestType.IFETCH.latency_hist_seqr::gmean     1.015318                       (Unspecified)
system.caches.RequestType.IFETCH.latency_hist_seqr::stdev    13.427999                       (Unspecified)
system.caches.RequestType.IFETCH.latency_hist_seqr |    27684790     99.99%     99.99% |        1621      0.01%    100.00% |         555      0.00%    100.00% |         239      0.00%    100.00% |          45      0.00%    100.00% |          12      0.00%    100.00% |           0      0.00%    100.00% |           0      0.00%    100.00% |           0      0.00%    100.00% |           0      0.00%    100.00% (Unspecified)
system.caches.RequestType.IFETCH.latency_hist_seqr::total     27687262                       (Unspecified)
system.caches.RequestType.IFETCH.hit_latency_hist_seqr::bucket_size            1                       (Unspecified)
system.caches.RequestType.IFETCH.hit_latency_hist_seqr::max_bucket            9                       (Unspecified)
system.caches.RequestType.IFETCH.hit_latency_hist_seqr::samples     27567220                       (Unspecified)
system.caches.RequestType.IFETCH.hit_latency_hist_seqr::mean            1                       (Unspecified)
system.caches.RequestType.IFETCH.hit_latency_hist_seqr::gmean            1                       (Unspecified)
system.caches.RequestType.IFETCH.hit_latency_hist_seqr |           0      0.00%      0.00% |    27567220    100.00%    100.00% |           0      0.00%    100.00% |           0      0.00%    100.00% |           0      0.00%    100.00% |           0      0.00%    100.00% |           0      0.00%    100.00% |           0      0.00%    100.00% |           0      0.00%    100.00% |           0      0.00%    100.00% (Unspecified)
system.caches.RequestType.IFETCH.hit_latency_hist_seqr::total     27567220                       (Unspecified)
system.caches.RequestType.IFETCH.miss_latency_hist_seqr::bucket_size          512                       (Unspecified)
system.caches.RequestType.IFETCH.miss_latency_hist_seqr::max_bucket         5119                       (Unspecified)
system.caches.RequestType.IFETCH.miss_latency_hist_seqr::samples       120042                       (Unspecified)
system.caches.RequestType.IFETCH.miss_latency_hist_seqr::mean   100.587369                       (Unspecified)
system.caches.RequestType.IFETCH.miss_latency_hist_seqr::gmean    33.323206                       (Unspecified)
system.caches.RequestType.IFETCH.miss_latency_hist_seqr::stdev   178.083544                       (Unspecified)
system.caches.RequestType.IFETCH.miss_latency_hist_seqr |      117570     97.94%     97.94% |        1621      1.35%     99.29% |         555      0.46%     99.75% |         239      0.20%     99.95% |          45      0.04%     99.99% |          12      0.01%    100.00% |           0      0.00%    100.00% |           0      0.00%    100.00% |           0      0.00%    100.00% |           0      0.00%    100.00% (Unspecified)
system.caches.RequestType.IFETCH.miss_latency_hist_seqr::total       120042                       (Unspecified)
system.caches.RequestType.RMW_Read.latency_hist_seqr::bucket_size          512                       (Unspecified)
system.caches.RequestType.RMW_Read.latency_hist_seqr::max_bucket         5119                       (Unspecified)
system.caches.RequestType.RMW_Read.latency_hist_seqr::samples       198431                       (Unspecified)
system.caches.RequestType.RMW_Read.latency_hist_seqr::mean    40.703176                       (Unspecified)
system.caches.RequestType.RMW_Read.latency_hist_seqr::gmean     1.358154                       (Unspecified)
system.caches.RequestType.RMW_Read.latency_hist_seqr::stdev   223.438530                       (Unspecified)
system.caches.RequestType.RMW_Read.latency_hist_seqr |      191258     96.39%     96.39% |        4486      2.26%     98.65% |        1470      0.74%     99.39% |         691      0.35%     99.73% |         355      0.18%     99.91% |         132      0.07%     99.98% |          31      0.02%    100.00% |           5      0.00%    100.00% |           3      0.00%    100.00% |           0      0.00%    100.00% (Unspecified)
system.caches.RequestType.RMW_Read.latency_hist_seqr::total       198431                       (Unspecified)
system.caches.RequestType.RMW_Read.hit_latency_hist_seqr::bucket_size          512                       (Unspecified)
system.caches.RequestType.RMW_Read.hit_latency_hist_seqr::max_bucket         5119                       (Unspecified)
system.caches.RequestType.RMW_Read.hit_latency_hist_seqr::samples       190425                       (Unspecified)
system.caches.RequestType.RMW_Read.hit_latency_hist_seqr::mean     5.122200                       (Unspecified)
system.caches.RequestType.RMW_Read.hit_latency_hist_seqr::gmean     1.049975                       (Unspecified)
system.caches.RequestType.RMW_Read.hit_latency_hist_seqr::stdev    74.229013                       (Unspecified)
system.caches.RequestType.RMW_Read.hit_latency_hist_seqr |      189703     99.62%     99.62% |         495      0.26%     99.88% |         109      0.06%     99.94% |          51      0.03%     99.96% |          42      0.02%     99.99% |          14      0.01%     99.99% |           9      0.00%    100.00% |           1      0.00%    100.00% |           1      0.00%    100.00% |           0      0.00%    100.00% (Unspecified)
system.caches.RequestType.RMW_Read.hit_latency_hist_seqr::total       190425                       (Unspecified)
system.caches.RequestType.RMW_Read.miss_latency_hist_seqr::bucket_size          512                       (Unspecified)
system.caches.RequestType.RMW_Read.miss_latency_hist_seqr::max_bucket         5119                       (Unspecified)
system.caches.RequestType.RMW_Read.miss_latency_hist_seqr::samples         8006                       (Unspecified)
system.caches.RequestType.RMW_Read.miss_latency_hist_seqr::mean   887.006870                       (Unspecified)
system.caches.RequestType.RMW_Read.miss_latency_hist_seqr::gmean   618.630615                       (Unspecified)
system.caches.RequestType.RMW_Read.miss_latency_hist_seqr::stdev   600.034492                       (Unspecified)
[...]
system.o3Cpu7.iew.squashCycles                   6263                       # Number of cycles IEW is squashing (Cycle)
system.o3Cpu7.iew.blockCycles                 1275675                       # Number of cycles IEW is blocking (Cycle)
system.o3Cpu7.iew.unblockCycles             154069038                       # Number of cycles IEW is unblocking (Cycle)
system.o3Cpu7.iew.dispatchedInsts            46330594                       # Number of instructions dispatched to IQ (Count)
system.o3Cpu7.iew.dispSquashedInsts               323                       # Number of squashed instructions skipped by dispatch (Count)
system.o3Cpu7.iew.dispLoadInsts              15400848                       # Number of dispatched load instructions (Count)
system.o3Cpu7.iew.dispStoreInsts              3440036                       # Number of dispatched store instructions (Count)
system.o3Cpu7.iew.dispNonSpecInsts               3007                       # Number of dispatched non-speculative instructions (Count)
system.o3Cpu7.iew.iqFullEvents                   2262                       # Number of times the IQ has become full, causing a stall (Count)
system.o3Cpu7.iew.lsqFullEvents             154063634                       # Number of times the LSQ has become full, causing a stall (Count)
system.o3Cpu7.iew.memOrderViolationEvents          346                       # Number of memory order violations (Count)
system.o3Cpu7.iew.predictedTakenIncorrect         5003                       # Number of branches that were predicted taken incorrectly (Count)
system.o3Cpu7.iew.predictedNotTakenIncorrect          837                       # Number of branches that were predicted not taken incorrectly (Count)
system.o3Cpu7.iew.branchMispredicts              5840                       # Number of branch mispredicts detected at execute (Count)
system.o3Cpu7.iew.instsToCommit              46288499                       # Cumulative count of insts sent to commit (Count)
system.o3Cpu7.iew.writebackCount             46281791                       # Cumulative count of insts written-back (Count)
system.o3Cpu7.iew.producerInst               31811856                       # Number of instructions producing a value (Count)
system.o3Cpu7.iew.consumerInst               47427364                       # Number of instructions consuming a value (Count)
system.o3Cpu7.iew.wbRate                     0.116748                       # Insts written-back per cycle ((Count/Cycle))
system.o3Cpu7.iew.wbFanout                   0.670749                       # Average fanout of values written-back ((Count/Count))
system.o3Cpu7.interrupts.clk_domain.clock         3200                       # Clock period in ticks (Tick)
system.o3Cpu7.lsq0.forwLoads                    11528                       # Number of loads that had data forwarded from stores (Count)
system.o3Cpu7.lsq0.squashedLoads                37812                       # Number of loads squashed (Count)
system.o3Cpu7.lsq0.ignoredResponses                 4                       # Number of memory responses ignored because the instruction is squashed (Count)
system.o3Cpu7.lsq0.memOrderViolation              346                       # Number of memory ordering violations (Count)
system.o3Cpu7.lsq0.squashedStores                2610                       # Number of stores squashed (Count)
system.o3Cpu7.lsq0.rescheduledLoads                74                       # Number of loads that were rescheduled (Count)
system.o3Cpu7.lsq0.blockedByCache                   0                       # Number of times an access to memory failed due to the cache being blocked (Count)
system.o3Cpu7.lsq0.loadToUse::samples        15363026                       # Distribution of cycle latency between the first time a load is issued and its completion (Unspecified)
system.o3Cpu7.lsq0.loadToUse::mean          70.555608                       # Distribution of cycle latency between the first time a load is issued and its completion (Unspecified)
system.o3Cpu7.lsq0.loadToUse::stdev        256.760160                       # Distribution of cycle latency between the first time a load is issued and its completion (Unspecified)
system.o3Cpu7.lsq0.loadToUse::0-9            14088165     91.70%     91.70% # Distribution of cycle latency between the first time a load is issued and its completion (Unspecified)
system.o3Cpu7.lsq0.loadToUse::10-19              2481      0.02%     91.72% # Distribution of cycle latency between the first time a load is issued and its completion (Unspecified)
system.o3Cpu7.lsq0.loadToUse::20-29              1218      0.01%     91.73% # Distribution of cycle latency between the first time a load is issued and its completion (Unspecified)
system.o3Cpu7.lsq0.loadToUse::30-39             24965      0.16%     91.89% # Distribution of cycle latency between the first time a load is issued and its completion (Unspecified)
system.o3Cpu7.lsq0.loadToUse::40-49               726      0.00%     91.89% # Distribution of cycle latency between the first time a load is issued and its completion (Unspecified)
system.o3Cpu7.lsq0.loadToUse::50-59              1827      0.01%     91.90% # Distribution of cycle latency between the first time a load is issued and its completion (Unspecified)
system.o3Cpu7.lsq0.loadToUse::60-69              1717      0.01%     91.92% # Distribution of cycle latency between the first time a load is issued and its completion (Unspecified)
system.o3Cpu7.lsq0.loadToUse::70-79              3914      0.03%     91.94% # Distribution of cycle latency between the first time a load is issued and its completion (Unspecified)
system.o3Cpu7.lsq0.loadToUse::80-89              3872      0.03%     91.97% # Distribution of cycle latency between the first time a load is issued and its completion (Unspecified)
system.o3Cpu7.lsq0.loadToUse::90-99               335      0.00%     91.97% # Distribution of cycle latency between the first time a load is issued and its completion (Unspecified)
system.o3Cpu7.lsq0.loadToUse::100-109             807      0.01%     91.97% # Distribution of cycle latency between the first time a load is issued and its completion (Unspecified)
system.o3Cpu7.lsq0.loadToUse::110-119             666      0.00%     91.98% # Distribution of cycle latency between the first time a load is issued and its completion (Unspecified)
system.o3Cpu7.lsq0.loadToUse::120-129            1166      0.01%     91.99% # Distribution of cycle latency between the first time a load is issued and its completion (Unspecified)
system.o3Cpu7.lsq0.loadToUse::130-139            1696      0.01%     92.00% # Distribution of cycle latency between the first time a load is issued and its completion (Unspecified)
system.o3Cpu7.lsq0.loadToUse::140-149             280      0.00%     92.00% # Distribution of cycle latency between the first time a load is issued and its completion (Unspecified)
system.o3Cpu7.lsq0.loadToUse::150-159             871      0.01%     92.00% # Distribution of cycle latency between the first time a load is issued and its completion (Unspecified)
system.o3Cpu7.lsq0.loadToUse::160-169             768      0.00%     92.01% # Distribution of cycle latency between the first time a load is issued and its completion (Unspecified)
system.o3Cpu7.lsq0.loadToUse::170-179            1049      0.01%     92.02% # Distribution of cycle latency between the first time a load is issued and its completion (Unspecified)
system.o3Cpu7.lsq0.loadToUse::180-189            1501      0.01%     92.03% # Distribution of cycle latency between the first time a load is issued and its completion (Unspecified)
system.o3Cpu7.lsq0.loadToUse::190-199             181      0.00%     92.03% # Distribution of cycle latency between the first time a load is issued and its completion (Unspecified)
system.o3Cpu7.lsq0.loadToUse::200-209             827      0.01%     92.03% # Distribution of cycle latency between the first time a load is issued and its completion (Unspecified)
system.o3Cpu7.lsq0.loadToUse::210-219             760      0.00%     92.04% # Distribution of cycle latency between the first time a load is issued and its completion (Unspecified)
system.o3Cpu7.lsq0.loadToUse::220-229            1073      0.01%     92.04% # Distribution of cycle latency between the first time a load is issued and its completion (Unspecified)
system.o3Cpu7.lsq0.loadToUse::230-239            2397      0.02%     92.06% # Distribution of cycle latency between the first time a load is issued and its completion (Unspecified)
system.o3Cpu7.lsq0.loadToUse::240-249             263      0.00%     92.06% # Distribution of cycle latency between the first time a load is issued and its completion (Unspecified)
system.o3Cpu7.lsq0.loadToUse::250-259             833      0.01%     92.07% # Distribution of cycle latency between the first time a load is issued and its completion (Unspecified)
system.o3Cpu7.lsq0.loadToUse::260-269             713      0.00%     92.07% # Distribution of cycle latency between the first time a load is issued and its completion (Unspecified)
system.o3Cpu7.lsq0.loadToUse::270-279             890      0.01%     92.08% # Distribution of cycle latency between the first time a load is issued and its completion (Unspecified)
system.o3Cpu7.lsq0.loadToUse::280-289            1577      0.01%     92.09% # Distribution of cycle latency between the first time a load is issued and its completion (Unspecified)
system.o3Cpu7.lsq0.loadToUse::290-299             378      0.00%     92.09% # Distribution of cycle latency between the first time a load is issued and its completion (Unspecified)
system.o3Cpu7.lsq0.loadToUse::overflows       1215110      7.91%    100.00% # Distribution of cycle latency between the first time a load is issued and its completion (Unspecified)
system.o3Cpu7.lsq0.loadToUse::min_value             2                       # Distribution of cycle latency between the first time a load is issued and its completion (Unspecified)
system.o3Cpu7.lsq0.loadToUse::max_value          5452                       # Distribution of cycle latency between the first time a load is issued and its completion (Unspecified)
system.o3Cpu7.lsq0.loadToUse::total          15363026                       # Distribution of cycle latency between the first time a load is issued and its completion (Unspecified)
system.o3Cpu7.mmu.dtb.rdAccesses             15395646                       # TLB accesses on read requests (Count)
system.o3Cpu7.mmu.dtb.wrAccesses              3440537                       # TLB accesses on write requests (Count)
system.o3Cpu7.mmu.dtb.rdMisses                   3699                       # TLB misses on read requests (Count)
system.o3Cpu7.mmu.dtb.wrMisses                   1868                       # TLB misses on write requests (Count)
system.o3Cpu7.mmu.dtb.walker.power_state.pwrStateResidencyTicks::UNDEFINED  80298884200                       # Cumulative time (in ticks) in various power states (Tick)
system.o3Cpu7.mmu.itb.rdAccesses                    0                       # TLB accesses on read requests (Count)
system.o3Cpu7.mmu.itb.wrAccesses              3474610                       # TLB accesses on write requests (Count)
system.o3Cpu7.mmu.itb.rdMisses                      0                       # TLB misses on read requests (Count)
system.o3Cpu7.mmu.itb.wrMisses                    159                       # TLB misses on write requests (Count)
system.o3Cpu7.mmu.itb.walker.power_state.pwrStateResidencyTicks::UNDEFINED  80298884200                       # Cumulative time (in ticks) in various power states (Tick)
system.o3Cpu7.power_state.pwrStateResidencyTicks::OFF  80298884200                       # Cumulative time (in ticks) in various power states (Tick)
system.o3Cpu7.rename.squashCycles                6263                       # Number of cycles rename is squashing (Cycle)
system.o3Cpu7.rename.idleCycles               3743332                       # Number of cycles rename is idle (Cycle)
system.o3Cpu7.rename.blockCycles            156648985                       # Number of cycles rename is blocking (Cycle)
system.o3Cpu7.rename.serializeStallCycles       780048                       # count of cycles rename stalled for serializing inst (Cycle)
system.o3Cpu7.rename.runCycles               11787465                       # Number of cycles rename is running (Cycle)
system.o3Cpu7.rename.unblockCycles          223147670                       # Number of cycles rename is unblocking (Cycle)
system.o3Cpu7.rename.renamedInsts            46350292                       # Number of instructions processed by rename (Count)
system.o3Cpu7.rename.ROBFullEvents             108187                       # Number of times rename has blocked due to ROB full (Count)
system.o3Cpu7.rename.IQFullEvents              349105                       # Number of times rename has blocked due to IQ full (Count)
system.o3Cpu7.rename.LQFullEvents           184962466                       # Number of times rename has blocked due to LQ full (Count)
system.o3Cpu7.rename.SQFullEvents            37668131                       # Number of times rename has blocked due to SQ full (Count)
system.o3Cpu7.rename.renamedOperands         59280078                       # Number of destination operands rename has renamed (Count)
system.o3Cpu7.rename.lookups                148509170                       # Number of register rename lookups that rename has made (Count)
system.o3Cpu7.rename.intLookups              46665252                       # Number of integer rename lookups (Count)
system.o3Cpu7.rename.fpLookups               56240629                       # Number of floating rename lookups (Count)
system.o3Cpu7.rename.committedMaps           59144649                       # Number of HB maps that are committed (Count)
system.o3Cpu7.rename.undoneMaps                135379                       # Number of HB maps that are undone due to squashing (Count)
system.o3Cpu7.rename.serializing                 2984                       # count of serializing insts renamed (Count)
system.o3Cpu7.rename.tempSerializing             2959                       # count of temporary serializing insts renamed (Count)
system.o3Cpu7.rename.skidInsts                4859606                       # count of insts added to the skid buffer (Count)
system.o3Cpu7.rob.reads                     432532673                       # The number of ROB reads (Count)
system.o3Cpu7.rob.writes                     92680685                       # The number of ROB writes (Count)
system.o3Cpu7.thread_0.numInsts              22893974                       # Number of Instructions committed (Count)
system.o3Cpu7.thread_0.numOps                46245613                       # Number of Ops committed (Count)
system.o3Cpu7.thread_0.numMemRefs                   0                       # Number of Memory References (Count)
system.pc.bad_addr.power_state.pwrStateResidencyTicks::UNDEFINED  80298884200                       # Cumulative time (in ticks) in various power states (Tick)
system.pc.com_1.power_state.pwrStateResidencyTicks::UNDEFINED  80298884200                       # Cumulative time (in ticks) in various power states (Tick)
system.pc.default_bus.power_state.pwrStateResidencyTicks::UNDEFINED  80298884200                       # Cumulative time (in ticks) in various power states (Tick)
system.pc.empty_isa.power_state.pwrStateResidencyTicks::UNDEFINED  80298884200                       # Cumulative time (in ticks) in various power states (Tick)
system.pc.fake_com_2.power_state.pwrStateResidencyTicks::UNDEFINED  80298884200                       # Cumulative time (in ticks) in various power states (Tick)
system.pc.fake_com_3.power_state.pwrStateResidencyTicks::UNDEFINED  80298884200                       # Cumulative time (in ticks) in various power states (Tick)
system.pc.fake_com_4.power_state.pwrStateResidencyTicks::UNDEFINED  80298884200                       # Cumulative time (in ticks) in various power states (Tick)
system.pc.fake_floppy.power_state.pwrStateResidencyTicks::UNDEFINED  80298884200                       # Cumulative time (in ticks) in various power states (Tick)
system.pc.pci_host.power_state.pwrStateResidencyTicks::UNDEFINED  80298884200                       # Cumulative time (in ticks) in various power states (Tick)
system.pc.south_bridge.cmos.power_state.pwrStateResidencyTicks::UNDEFINED  80298884200                       # Cumulative time (in ticks) in various power states (Tick)
system.pc.south_bridge.dma1.power_state.pwrStateResidencyTicks::UNDEFINED  80298884200                       # Cumulative time (in ticks) in various power states (Tick)
system.pc.south_bridge.ide.disks0.IdeDisk.dmaReadFullPages            0                       # Number of full page size DMA reads (not PRD). (Count)
system.pc.south_bridge.ide.disks0.IdeDisk.dmaReadBytes            0                       # Number of bytes transfered via DMA reads (not PRD). (Byte)
system.pc.south_bridge.ide.disks0.IdeDisk.dmaReadTxs            0                       # Number of DMA read transactions (not PRD). (Count)
system.pc.south_bridge.ide.disks0.IdeDisk.dmaWriteFullPages            0                       # Number of full page size DMA writes. (Count)
system.pc.south_bridge.ide.disks0.IdeDisk.dmaWriteBytes            0                       # Number of bytes transfered via DMA writes. (Byte)
system.pc.south_bridge.ide.disks0.IdeDisk.dmaWriteTxs            0                       # Number of DMA write transactions. (Count)
system.pc.south_bridge.ide.disks1.IdeDisk.dmaReadFullPages            0                       # Number of full page size DMA reads (not PRD). (Count)
system.pc.south_bridge.ide.disks1.IdeDisk.dmaReadBytes            0                       # Number of bytes transfered via DMA reads (not PRD). (Byte)
system.pc.south_bridge.ide.disks1.IdeDisk.dmaReadTxs            0                       # Number of DMA read transactions (not PRD). (Count)
system.pc.south_bridge.ide.disks1.IdeDisk.dmaWriteFullPages            0                       # Number of full page size DMA writes. (Count)
system.pc.south_bridge.ide.disks1.IdeDisk.dmaWriteBytes            0                       # Number of bytes transfered via DMA writes. (Byte)
system.pc.south_bridge.ide.disks1.IdeDisk.dmaWriteTxs            0                       # Number of DMA write transactions. (Count)
system.pc.south_bridge.ide.power_state.pwrStateResidencyTicks::UNDEFINED  80298884200                       # Cumulative time (in ticks) in various power states (Tick)
system.pc.south_bridge.io_apic.power_state.pwrStateResidencyTicks::UNDEFINED  80298884200                       # Cumulative time (in ticks) in various power states (Tick)
system.pc.south_bridge.keyboard.power_state.pwrStateResidencyTicks::UNDEFINED  80298884200                       # Cumulative time (in ticks) in various power states (Tick)
system.pc.south_bridge.pic1.power_state.pwrStateResidencyTicks::UNDEFINED  80298884200                       # Cumulative time (in ticks) in various power states (Tick)
system.pc.south_bridge.pic2.power_state.pwrStateResidencyTicks::UNDEFINED  80298884200                       # Cumulative time (in ticks) in various power states (Tick)
system.pc.south_bridge.pit.power_state.pwrStateResidencyTicks::UNDEFINED  80298884200                       # Cumulative time (in ticks) in various power states (Tick)
system.pc.south_bridge.speaker.power_state.pwrStateResidencyTicks::UNDEFINED  80298884200                       # Cumulative time (in ticks) in various power states (Tick)
system.workload.inst.arm                            0                       # number of arm instructions executed (Count)
system.workload.inst.quiesce                        0                       # number of quiesce instructions executed (Count)

---------- End Simulation Statistics   ----------
