
---------- Begin Simulation Statistics ----------
simSeconds                                   0.028725                       # Number of seconds simulated (Second)
simTicks                                  28725359500                       # Number of ticks simulated (Tick)
finalTick                                263965221108800                       # Number of ticks from beginning of simulation (restored from checkpoints and never reset) (Tick)
simFreq                                  1000000000000                       # The number of ticks per simulated second ((Tick/Second))
hostSeconds                                   5539.91                       # Real time elapsed on the host (Second)
hostTickRate                                  5185165                       # The number of ticks simulated per host second (ticks/s) ((Tick/Second))
hostMemory                                   19965164                       # Number of bytes of host memory used (Byte)
simInsts                                    141225852                       # Number of instructions simulated (Count)
simOps                                      276436019                       # Number of ops (including micro ops) simulated (Count)
hostInstRate                                    25492                       # Simulator instruction rate (inst/s) ((Count/Second))
hostOpRate                                      49899                       # Simulator op (including micro ops) rate (op/s) ((Count/Second))
system.caches.delayHistogram::bucket_size           32                       # delay histogram for all message (Unspecified)
system.caches.delayHistogram::max_bucket          319                       # delay histogram for all message (Unspecified)
system.caches.delayHistogram::samples        76127144                       # delay histogram for all message (Unspecified)
system.caches.delayHistogram::mean           7.525222                       # delay histogram for all message (Unspecified)
system.caches.delayHistogram::stdev         16.702309                       # delay histogram for all message (Unspecified)
system.caches.delayHistogram             |    68032324     89.37%     89.37% |     6583872      8.65%     98.02% |     1386700      1.82%     99.84% |      122871      0.16%    100.00% |        1376      0.00%    100.00% |           1      0.00%    100.00% |           0      0.00%    100.00% |           0      0.00%    100.00% |           0      0.00%    100.00% |           0      0.00%    100.00% # delay histogram for all message (Unspecified)
system.caches.delayHistogram::total          76127144                       # delay histogram for all message (Unspecified)
system.caches.m_outstandReqHistSeqr::bucket_size            2                       (Unspecified)
system.caches.m_outstandReqHistSeqr::max_bucket           19                       (Unspecified)
system.caches.m_outstandReqHistSeqr::samples     59187855                       (Unspecified)
system.caches.m_outstandReqHistSeqr::mean     9.349246                       (Unspecified)
system.caches.m_outstandReqHistSeqr::gmean     7.303381                       (Unspecified)
system.caches.m_outstandReqHistSeqr::stdev     5.202840                       (Unspecified)
system.caches.m_outstandReqHistSeqr      |     3878434      6.55%      6.55% |     7190398     12.15%     18.70% |     6868271     11.60%     30.31% |     5961025     10.07%     40.38% |     5763817      9.74%     50.11% |     5776009      9.76%     59.87% |     5484276      9.27%     69.14% |     5820975      9.83%     78.97% |    12444650     21.03%    100.00% |           0      0.00%    100.00% (Unspecified)
system.caches.m_outstandReqHistSeqr::total     59187855                       (Unspecified)
system.caches.m_latencyHistSeqr::bucket_size          512                       (Unspecified)
system.caches.m_latencyHistSeqr::max_bucket         5119                       (Unspecified)
system.caches.m_latencyHistSeqr::samples     59213706                       (Unspecified)
system.caches.m_latencyHistSeqr::mean       58.021560                       (Unspecified)
system.caches.m_latencyHistSeqr::gmean       4.158129                       (Unspecified)
system.caches.m_latencyHistSeqr::stdev     211.003693                       (Unspecified)
system.caches.m_latencyHistSeqr          |    55972162     94.53%     94.53% |     2663498      4.50%     99.02% |      372934      0.63%     99.65% |      132913      0.22%     99.88% |       57613      0.10%     99.98% |       12603      0.02%    100.00% |        1790      0.00%    100.00% |         173      0.00%    100.00% |          19      0.00%    100.00% |           1      0.00%    100.00% (Unspecified)
system.caches.m_latencyHistSeqr::total       59213706                       (Unspecified)
system.caches.m_hitLatencyHistSeqr::bucket_size          512                       (Unspecified)
system.caches.m_hitLatencyHistSeqr::max_bucket         5119                       (Unspecified)
system.caches.m_hitLatencyHistSeqr::samples     37358109                       (Unspecified)
system.caches.m_hitLatencyHistSeqr::mean     1.117131                       (Unspecified)
system.caches.m_hitLatencyHistSeqr::gmean     1.069436                       (Unspecified)
system.caches.m_hitLatencyHistSeqr::stdev     2.502865                       (Unspecified)
system.caches.m_hitLatencyHistSeqr       |    37357861    100.00%    100.00% |         194      0.00%    100.00% |          40      0.00%    100.00% |          10      0.00%    100.00% |           2      0.00%    100.00% |           1      0.00%    100.00% |           1      0.00%    100.00% |           0      0.00%    100.00% |           0      0.00%    100.00% |           0      0.00%    100.00% (Unspecified)
system.caches.m_hitLatencyHistSeqr::total     37358109                       (Unspecified)
system.caches.m_missLatencyHistSeqr::bucket_size          512                       (Unspecified)
system.caches.m_missLatencyHistSeqr::max_bucket         5119                       (Unspecified)
system.caches.m_missLatencyHistSeqr::samples     21855597                       (Unspecified)
system.caches.m_missLatencyHistSeqr::mean   155.289179                       (Unspecified)
system.caches.m_missLatencyHistSeqr::gmean    42.359891                       (Unspecified)
system.caches.m_missLatencyHistSeqr::stdev   324.990772                       (Unspecified)
system.caches.m_missLatencyHistSeqr      |    18614301     85.17%     85.17% |     2663304     12.19%     97.36% |      372894      1.71%     99.06% |      132903      0.61%     99.67% |       57611      0.26%     99.93% |       12602      0.06%     99.99% |        1789      0.01%    100.00% |         173      0.00%    100.00% |          19      0.00%    100.00% |           1      0.00%    100.00% (Unspecified)
system.caches.m_missLatencyHistSeqr::total     21855597                       (Unspecified)
system.caches.delayVCHist.vnet_0::bucket_size            8                       # delay histogram for vnet_0 (Unspecified)
system.caches.delayVCHist.vnet_0::max_bucket           79                       # delay histogram for vnet_0 (Unspecified)
system.caches.delayVCHist.vnet_0::samples     33469912                       # delay histogram for vnet_0 (Unspecified)
system.caches.delayVCHist.vnet_0::mean       0.130591                       # delay histogram for vnet_0 (Unspecified)
system.caches.delayVCHist.vnet_0::stdev      0.885369                       # delay histogram for vnet_0 (Unspecified)
system.caches.delayVCHist.vnet_0         |    33259291     99.37%     99.37% |      204767      0.61%     99.98% |        5309      0.02%    100.00% |         428      0.00%    100.00% |          66      0.00%    100.00% |          45      0.00%    100.00% |           4      0.00%    100.00% |           2      0.00%    100.00% |           0      0.00%    100.00% |           0      0.00%    100.00% # delay histogram for vnet_0 (Unspecified)
system.caches.delayVCHist.vnet_0::total      33469912                       # delay histogram for vnet_0 (Unspecified)
system.caches.delayVCHist.vnet_1::bucket_size           32                       # delay histogram for vnet_1 (Unspecified)
system.caches.delayVCHist.vnet_1::max_bucket          319                       # delay histogram for vnet_1 (Unspecified)
system.caches.delayVCHist.vnet_1::samples     38343277                       # delay histogram for vnet_1 (Unspecified)
system.caches.delayVCHist.vnet_1::mean      14.826399                       # delay histogram for vnet_1 (Unspecified)
system.caches.delayVCHist.vnet_1::stdev     21.113365                       # delay histogram for vnet_1 (Unspecified)
system.caches.delayVCHist.vnet_1         |    30248574     78.89%     78.89% |     6583755     17.17%     96.06% |     1386700      3.62%     99.68% |      122871      0.32%    100.00% |        1376      0.00%    100.00% |           1      0.00%    100.00% |           0      0.00%    100.00% |           0      0.00%    100.00% |           0      0.00%    100.00% |           0      0.00%    100.00% # delay histogram for vnet_1 (Unspecified)
system.caches.delayVCHist.vnet_1::total      38343277                       # delay histogram for vnet_1 (Unspecified)
system.caches.delayVCHist.vnet_2::bucket_size            1                       # delay histogram for vnet_2 (Unspecified)
system.caches.delayVCHist.vnet_2::max_bucket            9                       # delay histogram for vnet_2 (Unspecified)
system.caches.delayVCHist.vnet_2::samples      4313955                       # delay histogram for vnet_2 (Unspecified)
system.caches.delayVCHist.vnet_2::mean       0.002324                       # delay histogram for vnet_2 (Unspecified)
system.caches.delayVCHist.vnet_2::stdev      0.068213                       # delay histogram for vnet_2 (Unspecified)
system.caches.delayVCHist.vnet_2         |     4308949     99.88%     99.88% |           0      0.00%     99.88% |        5000      0.12%    100.00% |           0      0.00%    100.00% |           6      0.00%    100.00% |           0      0.00%    100.00% |           0      0.00%    100.00% |           0      0.00%    100.00% |           0      0.00%    100.00% |           0      0.00%    100.00% # delay histogram for vnet_2 (Unspecified)
system.caches.delayVCHist.vnet_2::total       4313955                       # delay histogram for vnet_2 (Unspecified)
system.caches.L1Cache_Controller.Load    |     6523538     12.47%     12.47% |     6509514     12.44%     24.92% |     6542541     12.51%     37.42% |     6541987     12.51%     49.93% |     6579808     12.58%     62.51% |     6495710     12.42%     74.93% |     6560350     12.54%     87.47% |     6553353     12.53%    100.00% (Unspecified)
system.caches.L1Cache_Controller.Load::total     52306801                       (Unspecified)
system.caches.L1Cache_Controller.Ifetch  |      717753     12.28%     12.28% |      732965     12.54%     24.81% |      738721     12.64%     37.45% |      716049     12.25%     49.70% |      747951     12.79%     62.49% |      752175     12.87%     75.36% |      712627     12.19%     87.55% |      727984     12.45%    100.00% (Unspecified)
system.caches.L1Cache_Controller.Ifetch::total      5846225                       (Unspecified)
system.caches.L1Cache_Controller.Store   |      136004     12.82%     12.82% |      131763     12.42%     25.24% |      132991     12.54%     37.78% |      129546     12.21%     49.99% |      134896     12.72%     62.71% |      134780     12.71%     75.42% |      129022     12.16%     87.58% |      131720     12.42%    100.00% (Unspecified)
system.caches.L1Cache_Controller.Store::total      1060722                       (Unspecified)
system.caches.L1Cache_Controller.Inv     |      431878     12.56%     12.56% |      429428     12.49%     25.05% |      430524     12.52%     37.56% |      428785     12.47%     50.03% |      426983     12.42%     62.45% |      430721     12.52%     74.97% |      430943     12.53%     87.50% |      429754     12.50%    100.00% (Unspecified)
system.caches.L1Cache_Controller.Inv::total      3439016                       (Unspecified)
system.caches.L1Cache_Controller.L1_Replacement |     2734594     12.58%     12.58% |     2704249     12.44%     25.03% |     2710584     12.47%     37.50% |     2719618     12.52%     50.02% |     2689515     12.38%     62.40% |     2712150     12.48%     74.88% |     2737738     12.60%     87.48% |     2721440     12.52%    100.00% (Unspecified)
system.caches.L1Cache_Controller.L1_Replacement::total     21729888                       (Unspecified)
system.caches.L1Cache_Controller.Fwd_GETX |        1568     12.18%     12.18% |        1615     12.54%     24.72% |        1640     12.74%     37.45% |        1580     12.27%     49.72% |        1660     12.89%     62.62% |        1654     12.84%     75.46% |        1556     12.08%     87.54% |        1604     12.46%    100.00% (Unspecified)
system.caches.L1Cache_Controller.Fwd_GETX::total        12877                       (Unspecified)
system.caches.L1Cache_Controller.Fwd_GETS |      108889     12.63%     12.63% |      107663     12.49%     25.12% |      108112     12.54%     37.66% |      106342     12.34%     50.00% |      107987     12.53%     62.52% |      107692     12.49%     75.02% |      107687     12.49%     87.51% |      107689     12.49%    100.00% (Unspecified)
system.caches.L1Cache_Controller.Fwd_GETS::total       862061                       (Unspecified)
system.caches.L1Cache_Controller.Fwd_GET_INSTR |           1    100.00%    100.00% |           0      0.00%    100.00% |           0      0.00%    100.00% |           0      0.00%    100.00% |           0      0.00%    100.00% |           0      0.00%    100.00% |           0      0.00%    100.00% |           0      0.00%    100.00% (Unspecified)
system.caches.L1Cache_Controller.Fwd_GET_INSTR::total            1                       (Unspecified)
system.caches.L1Cache_Controller.Data    |          47    100.00%    100.00% |           0      0.00%    100.00% |           0      0.00%    100.00% |           0      0.00%    100.00% |           0      0.00%    100.00% |           0      0.00%    100.00% |           0      0.00%    100.00% |           0      0.00%    100.00% (Unspecified)
system.caches.L1Cache_Controller.Data::total           47                       (Unspecified)
system.caches.L1Cache_Controller.Data_Exclusive |      723842     12.51%     12.51% |      722789     12.49%     25.01% |      723927     12.51%     37.52% |      723714     12.51%     50.03% |      717287     12.40%     62.43% |      723219     12.50%     74.93% |      726883     12.57%     87.50% |      723063     12.50%    100.00% (Unspecified)
system.caches.L1Cache_Controller.Data_Exclusive::total      5784724                       (Unspecified)
system.caches.L1Cache_Controller.DataS_fromL1 |      107071     12.42%     12.42% |      108057     12.53%     24.96% |      107754     12.50%     37.45% |      108581     12.60%     50.05% |      107311     12.45%     62.50% |      108137     12.54%     75.04% |      107925     12.52%     87.56% |      107226     12.44%    100.00% (Unspecified)
system.caches.L1Cache_Controller.DataS_fromL1::total       862062                       (Unspecified)
system.caches.L1Cache_Controller.Data_all_Acks |     1910778     12.58%     12.58% |     1888373     12.43%     25.00% |     1893814     12.46%     37.47% |     1902212     12.52%     49.99% |     1879888     12.37%     62.36% |     1895617     12.48%     74.83% |     1917722     12.62%     87.46% |     1906064     12.54%    100.00% (Unspecified)
system.caches.L1Cache_Controller.Data_all_Acks::total     15194468                       (Unspecified)
system.caches.L1Cache_Controller.Ack     |        2260     15.36%     15.36% |        1783     12.12%     27.48% |        1791     12.17%     39.66% |        1740     11.83%     51.49% |        1842     12.52%     64.01% |        1817     12.35%     76.36% |        1730     11.76%     88.12% |        1748     11.88%    100.00% (Unspecified)
system.caches.L1Cache_Controller.Ack::total        14711                       (Unspecified)
system.caches.L1Cache_Controller.Ack_all |        1892     13.19%     13.19% |        1783     12.43%     25.62% |        1791     12.49%     38.11% |        1740     12.13%     50.24% |        1842     12.84%     63.08% |        1817     12.67%     75.75% |        1730     12.06%     87.81% |        1748     12.19%    100.00% (Unspecified)
system.caches.L1Cache_Controller.Ack_all::total        14343                       (Unspecified)
system.caches.L1Cache_Controller.WB_Ack  |      628392     12.74%     12.74% |      614747     12.46%     25.20% |      615587     12.48%     37.67% |      616974     12.51%     50.18% |      609016     12.34%     62.52% |      615122     12.47%     74.99% |      618886     12.54%     87.54% |      614910     12.46%    100.00% (Unspecified)
system.caches.L1Cache_Controller.WB_Ack::total      4933634                       (Unspecified)
system.caches.L1Cache_Controller.NP.Load |     2732878     12.55%     12.55% |     2711372     12.45%     25.00% |     2717625     12.48%     37.48% |     2726639     12.52%     50.00% |     2696656     12.38%     62.38% |     2719175     12.49%     74.87% |     2744776     12.60%     87.47% |     2728568     12.53%    100.00% (Unspecified)
system.caches.L1Cache_Controller.NP.Load::total     21777689                       (Unspecified)
system.caches.L1Cache_Controller.NP.Ifetch |         742     16.47%     16.47% |         488     10.83%     27.30% |         573     12.72%     40.01% |         581     12.89%     52.91% |         481     10.67%     63.58% |         577     12.81%     76.39% |         570     12.65%     89.04% |         494     10.96%    100.00% (Unspecified)
system.caches.L1Cache_Controller.NP.Ifetch::total         4506                       (Unspecified)
system.caches.L1Cache_Controller.NP.Store |        1197     18.06%     18.06% |         780     11.77%     29.83% |         772     11.65%     41.48% |         794     11.98%     53.46% |         763     11.51%     64.98% |         783     11.82%     76.79% |         765     11.54%     88.34% |         773     11.66%    100.00% (Unspecified)
system.caches.L1Cache_Controller.NP.Store::total         6627                       (Unspecified)
system.caches.L1Cache_Controller.NP.Inv  |      417929     12.55%     12.55% |      415682     12.48%     25.04% |      416925     12.52%     37.56% |      415131     12.47%     50.03% |      413309     12.41%     62.44% |      416989     12.52%     74.96% |      417529     12.54%     87.50% |      416108     12.50%    100.00% (Unspecified)
system.caches.L1Cache_Controller.NP.Inv::total      3329602                       (Unspecified)
system.caches.L1Cache_Controller.I.Load  |        1732     11.95%     11.95% |        1903     13.13%     25.07% |        1846     12.73%     37.80% |        1856     12.80%     50.60% |        1859     12.82%     63.43% |        1732     11.95%     75.37% |        1765     12.17%     87.54% |        1806     12.46%    100.00% (Unspecified)
system.caches.L1Cache_Controller.I.Load::total        14499                       (Unspecified)
system.caches.L1Cache_Controller.I.Ifetch |        3624     14.45%     14.45% |        3062     12.21%     26.66% |        3034     12.10%     38.76% |        3041     12.13%     50.89% |        3064     12.22%     63.11% |        3062     12.21%     75.32% |        3096     12.35%     87.66% |        3094     12.34%    100.00% (Unspecified)
system.caches.L1Cache_Controller.I.Ifetch::total        25077                       (Unspecified)
system.caches.L1Cache_Controller.I.Store |        1563     12.11%     12.11% |        1628     12.61%     24.72% |        1642     12.72%     37.44% |        1592     12.33%     49.78% |        1663     12.88%     62.66% |        1641     12.71%     75.37% |        1561     12.09%     87.47% |        1618     12.53%    100.00% (Unspecified)
system.caches.L1Cache_Controller.I.Store::total        12908                       (Unspecified)
system.caches.L1Cache_Controller.I.L1_Replacement |        8429     12.30%     12.30% |        8620     12.58%     24.88% |        8547     12.47%     37.36% |        8589     12.54%     49.89% |        8598     12.55%     62.44% |        8777     12.81%     75.25% |        8388     12.24%     87.49% |        8571     12.51%    100.00% (Unspecified)
system.caches.L1Cache_Controller.I.L1_Replacement::total        68519                       (Unspecified)
system.caches.L1Cache_Controller.S.Load  |     2754214     12.40%     12.40% |     2762487     12.44%     24.83% |     2782457     12.53%     37.36% |     2785447     12.54%     49.90% |     2836321     12.77%     62.67% |     2730760     12.29%     74.96% |     2785429     12.54%     87.50% |     2776861     12.50%    100.00% (Unspecified)
system.caches.L1Cache_Controller.S.Load::total     22213976                       (Unspecified)
system.caches.L1Cache_Controller.S.Ifetch |      713386     12.26%     12.26% |      729415     12.54%     24.80% |      735114     12.64%     37.44% |      712427     12.25%     49.69% |      744406     12.80%     62.49% |      748536     12.87%     75.36% |      708961     12.19%     87.55% |      724396     12.45%    100.00% (Unspecified)
system.caches.L1Cache_Controller.S.Ifetch::total      5816641                       (Unspecified)
system.caches.L1Cache_Controller.S.Store |        1849     12.91%     12.91% |        1785     12.46%     25.37% |        1796     12.54%     37.91% |        1745     12.18%     50.09% |        1845     12.88%     62.97% |        1821     12.71%     75.68% |        1732     12.09%     87.77% |        1752     12.23%    100.00% (Unspecified)
system.caches.L1Cache_Controller.S.Store::total        14325                       (Unspecified)
system.caches.L1Cache_Controller.S.Inv   |       11446     12.94%     12.94% |       11065     12.51%     25.44% |       10967     12.39%     37.84% |       11060     12.50%     50.34% |       11126     12.57%     62.91% |       11012     12.45%     75.36% |       10831     12.24%     87.60% |       10974     12.40%    100.00% (Unspecified)
system.caches.L1Cache_Controller.S.Inv::total        88481                       (Unspecified)
system.caches.L1Cache_Controller.S.L1_Replacement |     2097773     12.54%     12.54% |     2080879     12.44%     24.98% |     2086450     12.47%     37.45% |     2094054     12.52%     49.97% |     2071899     12.39%     62.36% |     2088251     12.48%     74.84% |     2110464     12.62%     87.46% |     2097959     12.54%    100.00% (Unspecified)
system.caches.L1Cache_Controller.S.L1_Replacement::total     16727729                       (Unspecified)
system.caches.L1Cache_Controller.E.Load  |      901589     12.42%     12.42% |      904186     12.46%     24.87% |      910146     12.54%     37.41% |      901275     12.41%     49.83% |      912744     12.57%     62.40% |      909973     12.53%     74.93% |      902313     12.43%     87.36% |      917361     12.64%    100.00% (Unspecified)
system.caches.L1Cache_Controller.E.Load::total      7259587                       (Unspecified)
system.caches.L1Cache_Controller.E.Store |        6786     12.52%     12.52% |        6719     12.39%     24.91% |        6805     12.55%     37.46% |        6656     12.28%     49.74% |        6931     12.78%     62.52% |        6934     12.79%     75.31% |        6614     12.20%     87.51% |        6770     12.49%    100.00% (Unspecified)
system.caches.L1Cache_Controller.E.Store::total        54215                       (Unspecified)
system.caches.L1Cache_Controller.E.Inv   |        2435     12.03%     12.03% |        2572     12.70%     24.73% |        2529     12.49%     37.22% |        2504     12.37%     49.59% |        2457     12.13%     61.72% |        2648     13.08%     74.80% |        2497     12.33%     87.13% |        2606     12.87%    100.00% (Unspecified)
system.caches.L1Cache_Controller.E.Inv::total        20248                       (Unspecified)
system.caches.L1Cache_Controller.E.L1_Replacement |      607965     12.51%     12.51% |      607309     12.49%     25.00% |      608108     12.51%     37.51% |      609592     12.54%     50.05% |      601398     12.37%     62.42% |      607518     12.50%     74.92% |      611581     12.58%     87.50% |      607431     12.50%    100.00% (Unspecified)
system.caches.L1Cache_Controller.E.L1_Replacement::total      4860902                       (Unspecified)
system.caches.L1Cache_Controller.E.Fwd_GETX |           0      0.00%      0.00% |           6    100.00%    100.00% |           0      0.00%    100.00% |           0      0.00%    100.00% |           0      0.00%    100.00% |           0      0.00%    100.00% |           0      0.00%    100.00% |           0      0.00%    100.00% (Unspecified)
system.caches.L1Cache_Controller.E.Fwd_GETX::total            6                       (Unspecified)
system.caches.L1Cache_Controller.E.Fwd_GETS |      105876     12.50%     12.50% |      105913     12.51%     25.01% |      106326     12.56%     37.57% |      104605     12.35%     49.93% |      106174     12.54%     62.46% |      105886     12.51%     74.97% |      106000     12.52%     87.49% |      105928     12.51%    100.00% (Unspecified)
system.caches.L1Cache_Controller.E.Fwd_GETS::total       846708                       (Unspecified)
system.caches.L1Cache_Controller.E.Fwd_GET_INSTR |           1    100.00%    100.00% |           0      0.00%    100.00% |           0      0.00%    100.00% |           0      0.00%    100.00% |           0      0.00%    100.00% |           0      0.00%    100.00% |           0      0.00%    100.00% |           0      0.00%    100.00% (Unspecified)
system.caches.L1Cache_Controller.E.Fwd_GET_INSTR::total            1                       (Unspecified)
system.caches.L1Cache_Controller.M.Load  |      133123     12.79%     12.79% |      129566     12.45%     25.23% |      130467     12.53%     37.77% |      126768     12.18%     49.94% |      132226     12.70%     62.64% |      134070     12.88%     75.52% |      126066     12.11%     87.63% |      128757     12.37%    100.00% (Unspecified)
system.caches.L1Cache_Controller.M.Load::total      1041043                       (Unspecified)
system.caches.L1Cache_Controller.M.Store |      124609     12.81%     12.81% |      120851     12.42%     25.24% |      121976     12.54%     37.78% |      118759     12.21%     49.99% |      123694     12.72%     62.70% |      123601     12.71%     75.41% |      118350     12.17%     87.58% |      120807     12.42%    100.00% (Unspecified)
system.caches.L1Cache_Controller.M.Store::total       972647                       (Unspecified)
system.caches.L1Cache_Controller.M.Inv   |          62     10.06%     10.06% |          93     15.10%     25.16% |          81     13.15%     38.31% |          80     12.99%     51.30% |          88     14.29%     65.58% |          67     10.88%     76.46% |          84     13.64%     90.10% |          61      9.90%    100.00% (Unspecified)
system.caches.L1Cache_Controller.M.Inv::total          616                       (Unspecified)
system.caches.L1Cache_Controller.M.L1_Replacement |       20427     28.08%     28.08% |        7441     10.23%     38.31% |        7479     10.28%     48.60% |        7382     10.15%     58.75% |        7618     10.47%     69.22% |        7604     10.45%     79.67% |        7305     10.04%     89.72% |        7479     10.28%    100.00% (Unspecified)
system.caches.L1Cache_Controller.M.L1_Replacement::total        72735                       (Unspecified)
system.caches.L1Cache_Controller.M.Fwd_GETX |        1568     12.18%     12.18% |        1609     12.50%     24.68% |        1640     12.74%     37.43% |        1580     12.28%     49.70% |        1660     12.90%     62.60% |        1654     12.85%     75.45% |        1556     12.09%     87.54% |        1604     12.46%    100.00% (Unspecified)
system.caches.L1Cache_Controller.M.Fwd_GETX::total        12871                       (Unspecified)
system.caches.L1Cache_Controller.M.Fwd_GETS |        3013     19.63%     19.63% |        1750     11.40%     31.03% |        1784     11.62%     42.65% |        1737     11.32%     53.97% |        1813     11.81%     65.78% |        1806     11.77%     77.54% |        1687     10.99%     88.53% |        1760     11.47%    100.00% (Unspecified)
system.caches.L1Cache_Controller.M.Fwd_GETS::total        15350                       (Unspecified)
system.caches.L1Cache_Controller.IS.Inv  |           2      5.26%      5.26% |          14     36.84%     42.11% |          15     39.47%     81.58% |           5     13.16%     94.74% |           0      0.00%     94.74% |           1      2.63%     97.37% |           0      0.00%     97.37% |           1      2.63%    100.00% (Unspecified)
system.caches.L1Cache_Controller.IS.Inv::total           38                       (Unspecified)
system.caches.L1Cache_Controller.IS.L1_Replacement |           0      0.00%      0.00% |           0      0.00%      0.00% |           0      0.00%      0.00% |           1     33.33%     33.33% |           2     66.67%    100.00% |           0      0.00%    100.00% |           0      0.00%    100.00% |           0      0.00%    100.00% (Unspecified)
system.caches.L1Cache_Controller.IS.L1_Replacement::total            3                       (Unspecified)
system.caches.L1Cache_Controller.IS.Data_Exclusive |      723840     12.51%     12.51% |      722789     12.49%     25.01% |      723926     12.51%     37.52% |      723714     12.51%     50.03% |      717287     12.40%     62.43% |      723218     12.50%     74.93% |      726883     12.57%     87.50% |      723062     12.50%    100.00% (Unspecified)
system.caches.L1Cache_Controller.IS.Data_Exclusive::total      5784719                       (Unspecified)
system.caches.L1Cache_Controller.IS.DataS_fromL1 |      107071     12.42%     12.42% |      108057     12.53%     24.96% |      107754     12.50%     37.45% |      108581     12.60%     50.05% |      107311     12.45%     62.50% |      108137     12.54%     75.04% |      107925     12.52%     87.56% |      107226     12.44%    100.00% (Unspecified)
system.caches.L1Cache_Controller.IS.DataS_fromL1::total       862062                       (Unspecified)
system.caches.L1Cache_Controller.IS.Data_all_Acks |     1908061     12.57%     12.57% |     1885949     12.43%     25.00% |     1891381     12.46%     37.47% |     1899816     12.52%     49.99% |     1877459     12.37%     62.36% |     1893189     12.48%     74.83% |     1915394     12.62%     87.46% |     1903669     12.54%    100.00% (Unspecified)
system.caches.L1Cache_Controller.IS.Data_all_Acks::total     15174918                       (Unspecified)
system.caches.L1Cache_Controller.IM.Data |          47    100.00%    100.00% |           0      0.00%    100.00% |           0      0.00%    100.00% |           0      0.00%    100.00% |           0      0.00%    100.00% |           0      0.00%    100.00% |           0      0.00%    100.00% |           0      0.00%    100.00% (Unspecified)
system.caches.L1Cache_Controller.IM.Data::total           47                       (Unspecified)
system.caches.L1Cache_Controller.IM.Data_all_Acks |        2717     13.92%     13.92% |        2410     12.35%     26.27% |        2419     12.39%     38.66% |        2391     12.25%     50.91% |        2429     12.45%     63.36% |        2428     12.44%     75.80% |        2328     11.93%     87.73% |        2395     12.27%    100.00% (Unspecified)
system.caches.L1Cache_Controller.IM.Data_all_Acks::total        19517                       (Unspecified)
system.caches.L1Cache_Controller.SM.Inv  |           4     13.79%     13.79% |           2      6.90%     20.69% |           5     17.24%     37.93% |           5     17.24%     55.17% |           3     10.34%     65.52% |           4     13.79%     79.31% |           2      6.90%     86.21% |           4     13.79%    100.00% (Unspecified)
system.caches.L1Cache_Controller.SM.Inv::total           29                       (Unspecified)
system.caches.L1Cache_Controller.SM.Ack  |        2260     15.36%     15.36% |        1783     12.12%     27.48% |        1791     12.17%     39.66% |        1740     11.83%     51.49% |        1842     12.52%     64.01% |        1817     12.35%     76.36% |        1730     11.76%     88.12% |        1748     11.88%    100.00% (Unspecified)
system.caches.L1Cache_Controller.SM.Ack::total        14711                       (Unspecified)
system.caches.L1Cache_Controller.SM.Ack_all |        1892     13.19%     13.19% |        1783     12.43%     25.62% |        1791     12.49%     38.11% |        1740     12.13%     50.24% |        1842     12.84%     63.08% |        1817     12.67%     75.75% |        1730     12.06%     87.81% |        1748     12.19%    100.00% (Unspecified)
system.caches.L1Cache_Controller.SM.Ack_all::total        14343                       (Unspecified)
system.caches.L1Cache_Controller.IS_I.Data_Exclusive |           2     40.00%     40.00% |           0      0.00%     40.00% |           1     20.00%     60.00% |           0      0.00%     60.00% |           0      0.00%     60.00% |           1     20.00%     80.00% |           0      0.00%     80.00% |           1     20.00%    100.00% (Unspecified)
system.caches.L1Cache_Controller.IS_I.Data_Exclusive::total            5                       (Unspecified)
system.caches.L1Cache_Controller.IS_I.Data_all_Acks |           0      0.00%      0.00% |          14     42.42%     42.42% |          14     42.42%     84.85% |           5     15.15%    100.00% |           0      0.00%    100.00% |           0      0.00%    100.00% |           0      0.00%    100.00% |           0      0.00%    100.00% (Unspecified)
system.caches.L1Cache_Controller.IS_I.Data_all_Acks::total           33                       (Unspecified)
system.caches.L1Cache_Controller.M_I.Load |           2     28.57%     28.57% |           0      0.00%     28.57% |           0      0.00%     28.57% |           2     28.57%     57.14% |           2     28.57%     85.71% |           0      0.00%     85.71% |           1     14.29%    100.00% |           0      0.00%    100.00% (Unspecified)
system.caches.L1Cache_Controller.M_I.Load::total            7                       (Unspecified)
system.caches.L1Cache_Controller.M_I.Ifetch |           1    100.00%    100.00% |           0      0.00%    100.00% |           0      0.00%    100.00% |           0      0.00%    100.00% |           0      0.00%    100.00% |           0      0.00%    100.00% |           0      0.00%    100.00% |           0      0.00%    100.00% (Unspecified)
system.caches.L1Cache_Controller.M_I.Ifetch::total            1                       (Unspecified)
system.caches.L1Cache_Controller.M_I.Inv |           0      0.00%      0.00% |           0      0.00%      0.00% |           2    100.00%    100.00% |           0      0.00%    100.00% |           0      0.00%    100.00% |           0      0.00%    100.00% |           0      0.00%    100.00% |           0      0.00%    100.00% (Unspecified)
system.caches.L1Cache_Controller.M_I.Inv::total            2                       (Unspecified)
system.caches.L1Cache_Controller.M_I.Fwd_GETS |           0      0.00%      0.00% |           0      0.00%      0.00% |           2     66.67%     66.67% |           0      0.00%     66.67% |           0      0.00%     66.67% |           0      0.00%     66.67% |           0      0.00%     66.67% |           1     33.33%    100.00% (Unspecified)
system.caches.L1Cache_Controller.M_I.Fwd_GETS::total            3                       (Unspecified)
system.caches.L1Cache_Controller.M_I.WB_Ack |      628392     12.74%     12.74% |      614747     12.46%     25.20% |      615583     12.48%     37.67% |      616974     12.51%     50.18% |      609016     12.34%     62.52% |      615122     12.47%     74.99% |      618886     12.54%     87.54% |      614909     12.46%    100.00% (Unspecified)
system.caches.L1Cache_Controller.M_I.WB_Ack::total      4933629                       (Unspecified)
system.caches.L1Cache_Controller.SINK_WB_ACK.WB_Ack |           0      0.00%      0.00% |           0      0.00%      0.00% |           4     80.00%     80.00% |           0      0.00%     80.00% |           0      0.00%     80.00% |           0      0.00%     80.00% |           0      0.00%     80.00% |           1     20.00%    100.00% (Unspecified)
system.caches.L1Cache_Controller.SINK_WB_ACK.WB_Ack::total            5                       (Unspecified)
system.caches.Directory_Controller.Fetch |        4925      0.13%      0.13% |     3687104     99.87%    100.00% (Unspecified)
system.caches.Directory_Controller.Fetch::total      3692029                       (Unspecified)
system.caches.Directory_Controller.Data  |         301      0.26%      0.26% |      114806     99.74%    100.00% (Unspecified)
system.caches.Directory_Controller.Data::total       115107                       (Unspecified)
system.caches.Directory_Controller.Memory_Data |        4925      0.13%      0.13% |     3687086     99.87%    100.00% (Unspecified)
system.caches.Directory_Controller.Memory_Data::total      3692011                       (Unspecified)
system.caches.Directory_Controller.Memory_Ack |         301      0.26%      0.26% |      114806     99.74%    100.00% (Unspecified)
system.caches.Directory_Controller.Memory_Ack::total       115107                       (Unspecified)
system.caches.Directory_Controller.CleanReplacement |        4566      0.13%      0.13% |     3441284     99.87%    100.00% (Unspecified)
system.caches.Directory_Controller.CleanReplacement::total      3445850                       (Unspecified)
system.caches.Directory_Controller.I.Fetch |        4925      0.13%      0.13% |     3687104     99.87%    100.00% (Unspecified)
system.caches.Directory_Controller.I.Fetch::total      3692029                       (Unspecified)
system.caches.Directory_Controller.M.Data |         301      0.26%      0.26% |      114806     99.74%    100.00% (Unspecified)
system.caches.Directory_Controller.M.Data::total       115107                       (Unspecified)
system.caches.Directory_Controller.M.CleanReplacement |        4566      0.13%      0.13% |     3441284     99.87%    100.00% (Unspecified)
system.caches.Directory_Controller.M.CleanReplacement::total      3445850                       (Unspecified)
system.caches.Directory_Controller.IM.Memory_Data |        4925      0.13%      0.13% |     3687086     99.87%    100.00% (Unspecified)
system.caches.Directory_Controller.IM.Memory_Data::total      3692011                       (Unspecified)
system.caches.Directory_Controller.MI.Memory_Ack |         301      0.26%      0.26% |      114806     99.74%    100.00% (Unspecified)
system.caches.Directory_Controller.MI.Memory_Ack::total       115107                       (Unspecified)
system.caches.L2Cache_Controller.L1_GET_INSTR |        3332     11.26%     11.26% |        4367     14.75%     26.01% |        3553     12.00%     38.01% |        2567      8.67%     46.68% |        3545     11.97%     58.65% |        3756     12.69%     71.34% |        4182     14.13%     85.47% |        4302     14.53%    100.00% (Unspecified)
system.caches.L2Cache_Controller.L1_GET_INSTR::total        29604                       (Unspecified)
system.caches.L2Cache_Controller.L1_GETS |     2747637     12.61%     12.61% |     2737565     12.56%     25.17% |     2725362     12.51%     37.68% |     2722389     12.49%     50.17% |     2708494     12.43%     62.60% |     2732811     12.54%     75.14% |     2699779     12.39%     87.52% |     2718660     12.48%    100.00% (Unspecified)
system.caches.L2Cache_Controller.L1_GETS::total     21792697                       (Unspecified)
system.caches.L2Cache_Controller.L1_GETX |        1287      6.57%      6.57% |        1129      5.76%     12.33% |         118      0.60%     12.93% |       13137     67.05%     79.98% |         784      4.00%     83.98% |        1384      7.06%     91.04% |         751      3.83%     94.88% |        1004      5.12%    100.00% (Unspecified)
system.caches.L2Cache_Controller.L1_GETX::total        19594                       (Unspecified)
system.caches.L2Cache_Controller.L1_UPGRADE |           6      0.04%      0.04% |        7127     49.59%     49.63% |           1      0.01%     49.64% |           0      0.00%     49.64% |           0      0.00%     49.64% |        7116     49.52%     99.16% |         121      0.84%    100.00% |           0      0.00%    100.00% (Unspecified)
system.caches.L2Cache_Controller.L1_UPGRADE::total        14371                       (Unspecified)
system.caches.L2Cache_Controller.L1_PUTX |      611156     12.39%     12.39% |      619569     12.56%     24.95% |      616345     12.49%     37.44% |      617266     12.51%     49.95% |      615534     12.48%     62.43% |      621191     12.59%     75.02% |      614710     12.46%     87.48% |      617867     12.52%    100.00% (Unspecified)
system.caches.L2Cache_Controller.L1_PUTX::total      4933638                       (Unspecified)
system.caches.L2Cache_Controller.L1_PUTX_old |           0      0.00%      0.00% |           0      0.00%      0.00% |           0      0.00%      0.00% |           2     50.00%     50.00% |           0      0.00%     50.00% |           0      0.00%     50.00% |           0      0.00%     50.00% |           2     50.00%    100.00% (Unspecified)
system.caches.L2Cache_Controller.L1_PUTX_old::total            4                       (Unspecified)
system.caches.L2Cache_Controller.L2_Replacement |       14373     12.53%     12.53% |       14273     12.44%     24.97% |       13802     12.03%     37.01% |       14261     12.43%     49.44% |       14257     12.43%     61.87% |       14850     12.95%     74.81% |       14363     12.52%     87.34% |       14527     12.66%    100.00% (Unspecified)
system.caches.L2Cache_Controller.L2_Replacement::total       114706                       (Unspecified)
system.caches.L2Cache_Controller.L2_Replacement_clean |      430570     12.49%     12.49% |      431974     12.53%     25.03% |      428858     12.44%     37.47% |      431283     12.51%     49.99% |      429843     12.47%     62.46% |      432373     12.55%     75.01% |      429848     12.47%     87.48% |      431502     12.52%    100.00% (Unspecified)
system.caches.L2Cache_Controller.L2_Replacement_clean::total      3446251                       (Unspecified)
system.caches.L2Cache_Controller.Mem_Data |      461323     12.50%     12.50% |      462628     12.53%     25.03% |      459044     12.43%     37.46% |      461924     12.51%     49.97% |      460480     12.47%     62.44% |      463606     12.56%     75.00% |      460594     12.48%     87.48% |      462412     12.52%    100.00% (Unspecified)
system.caches.L2Cache_Controller.Mem_Data::total      3692011                       (Unspecified)
system.caches.L2Cache_Controller.Mem_Ack |      444943     12.50%     12.50% |      446247     12.53%     25.03% |      442660     12.43%     37.46% |      445544     12.51%     49.97% |      444100     12.47%     62.44% |      447223     12.56%     75.00% |      444211     12.47%     87.47% |      446029     12.53%    100.00% (Unspecified)
system.caches.L2Cache_Controller.Mem_Ack::total      3560957                       (Unspecified)
system.caches.L2Cache_Controller.WB_Data |         339      2.12%      2.12% |        7371     46.17%     48.29% |         188      1.18%     49.47% |         182      1.14%     50.61% |         181      1.13%     51.74% |        7234     45.31%     97.05% |         289      1.81%     98.86% |         182      1.14%    100.00% (Unspecified)
system.caches.L2Cache_Controller.WB_Data::total        15966                       (Unspecified)
system.caches.L2Cache_Controller.WB_Data_clean |      115702     13.66%     13.66% |      104564     12.35%     26.01% |      103348     12.21%     38.22% |      105031     12.40%     50.62% |      103963     12.28%     62.90% |      104596     12.35%     75.26% |      104476     12.34%     87.60% |      105034     12.40%    100.00% (Unspecified)
system.caches.L2Cache_Controller.WB_Data_clean::total       846714                       (Unspecified)
system.caches.L2Cache_Controller.Ack     |      337162     12.76%     12.76% |      330880     12.52%     25.28% |      326724     12.36%     37.64% |      331449     12.54%     50.18% |      328061     12.41%     62.59% |      330385     12.50%     75.09% |      327117     12.38%     87.47% |      331305     12.53%    100.00% (Unspecified)
system.caches.L2Cache_Controller.Ack::total      2643083                       (Unspecified)
system.caches.L2Cache_Controller.Ack_all |      106838     13.69%     13.69% |       96400     12.35%     26.04% |       95174     12.19%     38.23% |       96909     12.42%     50.65% |       95745     12.27%     62.91% |       96436     12.35%     75.27% |       96257     12.33%     87.60% |       96798     12.40%    100.00% (Unspecified)
system.caches.L2Cache_Controller.Ack_all::total       780557                       (Unspecified)
system.caches.L2Cache_Controller.Unblock |      115883     13.44%     13.44% |      111751     12.96%     26.41% |      103501     12.01%     38.41% |      105174     12.20%     50.61% |      104095     12.08%     62.69% |      111781     12.97%     75.65% |      104720     12.15%     87.80% |      105157     12.20%    100.00% (Unspecified)
system.caches.L2Cache_Controller.Unblock::total       862062                       (Unspecified)
system.caches.L2Cache_Controller.Exclusive_Unblock |      728070     12.51%     12.51% |      732936     12.60%     25.11% |      720984     12.39%     37.50% |      736422     12.66%     50.16% |      720845     12.39%     62.55% |      734311     12.62%     75.17% |      720787     12.39%     87.55% |      724229     12.45%    100.00% (Unspecified)
system.caches.L2Cache_Controller.Exclusive_Unblock::total      5818584                       (Unspecified)
system.caches.L2Cache_Controller.NP.L1_GET_INSTR |         519     12.01%     12.01% |         583     13.49%     25.50% |         567     13.12%     38.62% |         413      9.56%     48.17% |         543     12.56%     60.74% |         552     12.77%     73.51% |         545     12.61%     86.12% |         600     13.88%    100.00% (Unspecified)
system.caches.L2Cache_Controller.NP.L1_GET_INSTR::total         4322                       (Unspecified)
system.caches.L2Cache_Controller.NP.L1_GETS |      460132     12.49%     12.49% |      461527     12.53%     25.02% |      458415     12.44%     37.46% |      461173     12.52%     49.98% |      459519     12.47%     62.45% |      462363     12.55%     75.00% |      459686     12.48%     87.48% |      461273     12.52%    100.00% (Unspecified)
system.caches.L2Cache_Controller.NP.L1_GETS::total      3684088                       (Unspecified)
system.caches.L2Cache_Controller.NP.L1_GETX |         676     18.68%     18.68% |         521     14.40%     33.08% |          62      1.71%     34.79% |         342      9.45%     44.24% |         422     11.66%     55.90% |         692     19.12%     75.02% |         364     10.06%     85.08% |         540     14.92%    100.00% (Unspecified)
system.caches.L2Cache_Controller.NP.L1_GETX::total         3619                       (Unspecified)
system.caches.L2Cache_Controller.NP.L1_PUTX_old |           0      0.00%      0.00% |           0      0.00%      0.00% |           0      0.00%      0.00% |           1     50.00%     50.00% |           0      0.00%     50.00% |           0      0.00%     50.00% |           0      0.00%     50.00% |           1     50.00%    100.00% (Unspecified)
system.caches.L2Cache_Controller.NP.L1_PUTX_old::total            2                       (Unspecified)
system.caches.L2Cache_Controller.SS.L1_GET_INSTR |        2232     10.80%     10.80% |        3121     15.10%     25.89% |        2471     11.95%     37.85% |        1659      8.03%     45.87% |        2383     11.53%     57.40% |        2635     12.75%     70.15% |        3000     14.51%     84.66% |        3171     15.34%    100.00% (Unspecified)
system.caches.L2Cache_Controller.SS.L1_GET_INSTR::total        20672                       (Unspecified)
system.caches.L2Cache_Controller.SS.L1_GETS |     1904342     12.58%     12.58% |     1900621     12.55%     25.13% |     1900586     12.55%     37.68% |     1893609     12.51%     50.18% |     1884033     12.44%     62.63% |     1894766     12.51%     75.14% |     1874706     12.38%     87.52% |     1889920     12.48%    100.00% (Unspecified)
system.caches.L2Cache_Controller.SS.L1_GETS::total     15142583                       (Unspecified)
system.caches.L2Cache_Controller.SS.L1_GETX |          25     53.19%     53.19% |           0      0.00%     53.19% |           0      0.00%     53.19% |           0      0.00%     53.19% |           0      0.00%     53.19% |           0      0.00%     53.19% |          22     46.81%    100.00% |           0      0.00%    100.00% (Unspecified)
system.caches.L2Cache_Controller.SS.L1_GETX::total           47                       (Unspecified)
system.caches.L2Cache_Controller.SS.L1_UPGRADE |           6      0.04%      0.04% |        7110     49.73%     49.78% |           1      0.01%     49.78% |           0      0.00%     49.78% |           0      0.00%     49.78% |        7092     49.61%     99.39% |          87      0.61%    100.00% |           0      0.00%    100.00% (Unspecified)
system.caches.L2Cache_Controller.SS.L1_UPGRADE::total        14296                       (Unspecified)
system.caches.L2Cache_Controller.SS.L1_PUTX |           0      0.00%      0.00% |           0      0.00%      0.00% |           0      0.00%      0.00% |           1     33.33%     33.33% |           0      0.00%     33.33% |           1     33.33%     66.67% |           1     33.33%    100.00% |           0      0.00%    100.00% (Unspecified)
system.caches.L2Cache_Controller.SS.L1_PUTX::total            3                       (Unspecified)
system.caches.L2Cache_Controller.SS.L2_Replacement |        3119     12.62%     12.62% |        3078     12.45%     25.07% |        3122     12.63%     37.70% |        3123     12.64%     50.34% |        3083     12.47%     62.81% |        3117     12.61%     75.42% |        3095     12.52%     87.95% |        2979     12.05%    100.00% (Unspecified)
system.caches.L2Cache_Controller.SS.L2_Replacement::total        24716                       (Unspecified)
system.caches.L2Cache_Controller.SS.L2_Replacement_clean |      101418     13.79%     13.79% |       90802     12.34%     26.13% |       89625     12.18%     38.32% |       91114     12.39%     50.70% |       90179     12.26%     62.96% |       90694     12.33%     75.29% |       90538     12.31%     87.60% |       91223     12.40%    100.00% (Unspecified)
system.caches.L2Cache_Controller.SS.L2_Replacement_clean::total       735593                       (Unspecified)
system.caches.L2Cache_Controller.M.L1_GET_INSTR |           0      0.00%      0.00% |           3     33.33%     33.33% |           1     11.11%     44.44% |           0      0.00%     44.44% |           0      0.00%     44.44% |           1     11.11%     55.56% |           1     11.11%     66.67% |           3     33.33%    100.00% (Unspecified)
system.caches.L2Cache_Controller.M.L1_GET_INSTR::total            9                       (Unspecified)
system.caches.L2Cache_Controller.M.L1_GETS |      266877     12.70%     12.70% |      263358     12.53%     25.23% |      262618     12.49%     37.72% |      262258     12.48%     50.20% |      260670     12.40%     62.60% |      263640     12.54%     75.14% |      260336     12.39%     87.53% |      262099     12.47%    100.00% (Unspecified)
system.caches.L2Cache_Controller.M.L1_GETS::total      2101856                       (Unspecified)
system.caches.L2Cache_Controller.M.L1_GETX |         581     19.23%     19.23% |         470     15.56%     34.79% |          56      1.85%     36.64% |         175      5.79%     42.44% |         362     11.98%     54.42% |         550     18.21%     72.62% |         363     12.02%     84.64% |         464     15.36%    100.00% (Unspecified)
system.caches.L2Cache_Controller.M.L1_GETX::total         3021                       (Unspecified)
system.caches.L2Cache_Controller.M.L2_Replacement |       11173     12.47%     12.47% |       11073     12.36%     24.83% |       10662     11.90%     36.73% |       11114     12.40%     49.13% |       11151     12.45%     61.58% |       11667     13.02%     74.60% |       11239     12.54%     87.14% |       11518     12.86%    100.00% (Unspecified)
system.caches.L2Cache_Controller.M.L2_Replacement::total        89597                       (Unspecified)
system.caches.L2Cache_Controller.M.L2_Replacement_clean |      326774     12.15%     12.15% |      338590     12.59%     24.73% |      336789     12.52%     37.25% |      337482     12.54%     49.80% |      337155     12.53%     62.33% |      339071     12.60%     74.93% |      336670     12.51%     87.45% |      337654     12.55%    100.00% (Unspecified)
system.caches.L2Cache_Controller.M.L2_Replacement_clean::total      2690185                       (Unspecified)
system.caches.L2Cache_Controller.MT.L1_GET_INSTR |           0      0.00%      0.00% |           0      0.00%      0.00% |           0      0.00%      0.00% |           0      0.00%      0.00% |           0      0.00%      0.00% |           0      0.00%      0.00% |           1    100.00%    100.00% |           0      0.00%    100.00% (Unspecified)
system.caches.L2Cache_Controller.MT.L1_GET_INSTR::total            1                       (Unspecified)
system.caches.L2Cache_Controller.MT.L1_GETS |      115883     13.44%     13.44% |      111751     12.96%     26.41% |      103501     12.01%     38.41% |      105174     12.20%     50.61% |      104095     12.08%     62.69% |      111781     12.97%     75.65% |      104719     12.15%     87.80% |      105157     12.20%    100.00% (Unspecified)
system.caches.L2Cache_Controller.MT.L1_GETS::total       862061                       (Unspecified)
system.caches.L2Cache_Controller.MT.L1_GETX |           5      0.04%      0.04% |         128      0.99%      1.03% |           0      0.00%      1.03% |       12603     97.87%     98.91% |           0      0.00%     98.91% |         139      1.08%     99.98% |           2      0.02%    100.00% |           0      0.00%    100.00% (Unspecified)
system.caches.L2Cache_Controller.MT.L1_GETX::total        12877                       (Unspecified)
system.caches.L2Cache_Controller.MT.L1_PUTX |      611156     12.39%     12.39% |      619569     12.56%     24.95% |      616345     12.49%     37.44% |      617264     12.51%     49.95% |      615534     12.48%     62.43% |      621189     12.59%     75.02% |      614708     12.46%     87.48% |      617867     12.52%    100.00% (Unspecified)
system.caches.L2Cache_Controller.MT.L1_PUTX::total      4933632                       (Unspecified)
system.caches.L2Cache_Controller.MT.L2_Replacement |          81     20.61%     20.61% |         122     31.04%     51.65% |          18      4.58%     56.23% |          24      6.11%     62.34% |          23      5.85%     68.19% |          66     16.79%     84.99% |          29      7.38%     92.37% |          30      7.63%    100.00% (Unspecified)
system.caches.L2Cache_Controller.MT.L2_Replacement::total          393                       (Unspecified)
system.caches.L2Cache_Controller.MT.L2_Replacement_clean |        2378     11.62%     11.62% |        2582     12.61%     24.23% |        2444     11.94%     36.16% |        2687     13.12%     49.29% |        2509     12.26%     61.54% |        2608     12.74%     74.28% |        2640     12.90%     87.18% |        2625     12.82%    100.00% (Unspecified)
system.caches.L2Cache_Controller.MT.L2_Replacement_clean::total        20473                       (Unspecified)
system.caches.L2Cache_Controller.M_I.L1_GET_INSTR |           0      0.00%      0.00% |           0      0.00%      0.00% |           7     46.67%     46.67% |           4     26.67%     73.33% |           0      0.00%     73.33% |           0      0.00%     73.33% |           4     26.67%    100.00% |           0      0.00%    100.00% (Unspecified)
system.caches.L2Cache_Controller.M_I.L1_GET_INSTR::total           15                       (Unspecified)
system.caches.L2Cache_Controller.M_I.L1_GETS |          13     36.11%     36.11% |           8     22.22%     58.33% |           7     19.44%     77.78% |           2      5.56%     83.33% |           3      8.33%     91.67% |           1      2.78%     94.44% |           0      0.00%     94.44% |           2      5.56%    100.00% (Unspecified)
system.caches.L2Cache_Controller.M_I.L1_GETS::total           36                       (Unspecified)
system.caches.L2Cache_Controller.M_I.Mem_Ack |      444943     12.50%     12.50% |      446247     12.53%     25.03% |      442660     12.43%     37.46% |      445544     12.51%     49.97% |      444100     12.47%     62.44% |      447223     12.56%     75.00% |      444211     12.47%     87.47% |      446029     12.53%    100.00% (Unspecified)
system.caches.L2Cache_Controller.M_I.Mem_Ack::total      3560957                       (Unspecified)
system.caches.L2Cache_Controller.MT_I.WB_Data |          54     25.12%     25.12% |          98     45.58%     70.70% |           0      0.00%     70.70% |           3      1.40%     72.09% |           3      1.40%     73.49% |          40     18.60%     92.09% |           3      1.40%     93.49% |          14      6.51%    100.00% (Unspecified)
system.caches.L2Cache_Controller.MT_I.WB_Data::total          215                       (Unspecified)
system.caches.L2Cache_Controller.MT_I.Ack_all |          27     15.17%     15.17% |          24     13.48%     28.65% |          18     10.11%     38.76% |          21     11.80%     50.56% |          20     11.24%     61.80% |          26     14.61%     76.40% |          26     14.61%     91.01% |          16      8.99%    100.00% (Unspecified)
system.caches.L2Cache_Controller.MT_I.Ack_all::total          178                       (Unspecified)
system.caches.L2Cache_Controller.MCT_I.L1_GETS |           0      0.00%      0.00% |           0      0.00%      0.00% |           0      0.00%      0.00% |           0      0.00%      0.00% |           0      0.00%      0.00% |           0      0.00%      0.00% |           1    100.00%    100.00% |           0      0.00%    100.00% (Unspecified)
system.caches.L2Cache_Controller.MCT_I.L1_GETS::total            1                       (Unspecified)
system.caches.L2Cache_Controller.MCT_I.L1_PUTX_old |           0      0.00%      0.00% |           0      0.00%      0.00% |           0      0.00%      0.00% |           1     50.00%     50.00% |           0      0.00%     50.00% |           0      0.00%     50.00% |           0      0.00%     50.00% |           1     50.00%    100.00% (Unspecified)
system.caches.L2Cache_Controller.MCT_I.L1_PUTX_old::total            2                       (Unspecified)
system.caches.L2Cache_Controller.MCT_I.WB_Data |         104     25.94%     25.94% |          86     21.45%     47.38% |          35      8.73%     56.11% |          35      8.73%     64.84% |          46     11.47%     76.31% |           9      2.24%     78.55% |          42     10.47%     89.03% |          44     10.97%    100.00% (Unspecified)
system.caches.L2Cache_Controller.MCT_I.WB_Data::total          401                       (Unspecified)
system.caches.L2Cache_Controller.MCT_I.WB_Data_clean |           0      0.00%      0.00% |           0      0.00%      0.00% |           0      0.00%      0.00% |           1     50.00%     50.00% |           0      0.00%     50.00% |           0      0.00%     50.00% |           0      0.00%     50.00% |           1     50.00%    100.00% (Unspecified)
system.caches.L2Cache_Controller.MCT_I.WB_Data_clean::total            2                       (Unspecified)
system.caches.L2Cache_Controller.MCT_I.Ack_all |        2274     11.33%     11.33% |        2496     12.44%     23.77% |        2409     12.00%     35.77% |        2651     13.21%     48.98% |        2463     12.27%     61.25% |        2599     12.95%     74.20% |        2598     12.94%     87.14% |        2580     12.86%    100.00% (Unspecified)
system.caches.L2Cache_Controller.MCT_I.Ack_all::total        20070                       (Unspecified)
system.caches.L2Cache_Controller.I_I.L1_GETS |           1     14.29%     14.29% |           1     14.29%     28.57% |           2     28.57%     57.14% |           1     14.29%     71.43% |           0      0.00%     71.43% |           0      0.00%     71.43% |           0      0.00%     71.43% |           2     28.57%    100.00% (Unspecified)
system.caches.L2Cache_Controller.I_I.L1_GETS::total            7                       (Unspecified)
system.caches.L2Cache_Controller.I_I.Ack |      322770     12.76%     12.76% |      316633     12.51%     25.27% |      312413     12.35%     37.62% |      317425     12.55%     50.17% |      313798     12.40%     62.57% |      316211     12.50%     75.07% |      312950     12.37%     87.43% |      317923     12.57%    100.00% (Unspecified)
system.caches.L2Cache_Controller.I_I.Ack::total      2530123                       (Unspecified)
system.caches.L2Cache_Controller.I_I.Ack_all |      101418     13.79%     13.79% |       90802     12.34%     26.13% |       89625     12.18%     38.32% |       91114     12.39%     50.70% |       90179     12.26%     62.96% |       90694     12.33%     75.29% |       90538     12.31%     87.60% |       91223     12.40%    100.00% (Unspecified)
system.caches.L2Cache_Controller.I_I.Ack_all::total       735593                       (Unspecified)
system.caches.L2Cache_Controller.S_I.Ack |       14392     12.74%     12.74% |       14247     12.61%     25.35% |       14311     12.67%     38.02% |       14024     12.42%     50.44% |       14263     12.63%     63.06% |       14174     12.55%     75.61% |       14167     12.54%     88.15% |       13382     11.85%    100.00% (Unspecified)
system.caches.L2Cache_Controller.S_I.Ack::total       112960                       (Unspecified)
system.caches.L2Cache_Controller.S_I.Ack_all |        3119     12.62%     12.62% |        3078     12.45%     25.07% |        3122     12.63%     37.70% |        3123     12.64%     50.34% |        3083     12.47%     62.81% |        3117     12.61%     75.42% |        3095     12.52%     87.95% |        2979     12.05%    100.00% (Unspecified)
system.caches.L2Cache_Controller.S_I.Ack_all::total        24716                       (Unspecified)
system.caches.L2Cache_Controller.ISS.L1_GETS |         228     19.05%     19.05% |         173     14.45%     33.50% |         167     13.95%     47.45% |         125     10.44%     57.89% |         124     10.36%     68.25% |         164     13.70%     81.95% |          71      5.93%     87.89% |         145     12.11%    100.00% (Unspecified)
system.caches.L2Cache_Controller.ISS.L1_GETS::total         1197                       (Unspecified)
system.caches.L2Cache_Controller.ISS.Mem_Data |      459900     12.49%     12.49% |      461351     12.53%     25.01% |      458248     12.44%     37.46% |      461044     12.52%     49.98% |      459391     12.47%     62.45% |      462198     12.55%     75.00% |      459614     12.48%     87.48% |      461127     12.52%    100.00% (Unspecified)
system.caches.L2Cache_Controller.ISS.Mem_Data::total      3682873                       (Unspecified)
system.caches.L2Cache_Controller.IS.L1_GET_INSTR |         581     12.69%     12.69% |         660     14.41%     27.10% |         507     11.07%     38.17% |         491     10.72%     48.90% |         619     13.52%     62.42% |         568     12.40%     74.82% |         625     13.65%     88.47% |         528     11.53%    100.00% (Unspecified)
system.caches.L2Cache_Controller.IS.L1_GET_INSTR::total         4579                       (Unspecified)
system.caches.L2Cache_Controller.IS.L1_GETS |         117     29.18%     29.18% |          77     19.20%     48.38% |          41     10.22%     58.60% |          24      5.99%     64.59% |          35      8.73%     73.32% |          69     17.21%     90.52% |           5      1.25%     91.77% |          33      8.23%    100.00% (Unspecified)
system.caches.L2Cache_Controller.IS.L1_GETS::total          401                       (Unspecified)
system.caches.L2Cache_Controller.IS.Mem_Data |         747     13.54%     13.54% |         756     13.70%     27.23% |         734     13.30%     40.53% |         538      9.75%     50.28% |         667     12.09%     62.37% |         716     12.97%     75.34% |         616     11.16%     86.50% |         745     13.50%    100.00% (Unspecified)
system.caches.L2Cache_Controller.IS.Mem_Data::total         5519                       (Unspecified)
system.caches.L2Cache_Controller.IM.Mem_Data |         676     18.68%     18.68% |         521     14.40%     33.08% |          62      1.71%     34.79% |         342      9.45%     44.24% |         422     11.66%     55.90% |         692     19.12%     75.02% |         364     10.06%     85.08% |         540     14.92%    100.00% (Unspecified)
system.caches.L2Cache_Controller.IM.Mem_Data::total         3619                       (Unspecified)
system.caches.L2Cache_Controller.SS_MB.L1_GETS |           0      0.00%      0.00% |           3      1.82%      1.82% |           0      0.00%      1.82% |           0      0.00%      1.82% |           0      0.00%      1.82% |           6      3.64%      5.45% |         156     94.55%    100.00% |           0      0.00%    100.00% (Unspecified)
system.caches.L2Cache_Controller.SS_MB.L1_GETS::total          165                       (Unspecified)
system.caches.L2Cache_Controller.SS_MB.L1_GETX |           0      0.00%      0.00% |           3    100.00%    100.00% |           0      0.00%    100.00% |           0      0.00%    100.00% |           0      0.00%    100.00% |           0      0.00%    100.00% |           0      0.00%    100.00% |           0      0.00%    100.00% (Unspecified)
system.caches.L2Cache_Controller.SS_MB.L1_GETX::total            3                       (Unspecified)
system.caches.L2Cache_Controller.SS_MB.L1_UPGRADE |           0      0.00%      0.00% |          13     44.83%     44.83% |           0      0.00%     44.83% |           0      0.00%     44.83% |           0      0.00%     44.83% |          16     55.17%    100.00% |           0      0.00%    100.00% |           0      0.00%    100.00% (Unspecified)
system.caches.L2Cache_Controller.SS_MB.L1_UPGRADE::total           29                       (Unspecified)
system.caches.L2Cache_Controller.SS_MB.Exclusive_Unblock |          31      0.22%      0.22% |        7110     49.57%     49.79% |           1      0.01%     49.79% |           0      0.00%     49.79% |           0      0.00%     49.79% |        7092     49.45%     99.24% |         109      0.76%    100.00% |           0      0.00%    100.00% (Unspecified)
system.caches.L2Cache_Controller.SS_MB.Exclusive_Unblock::total        14343                       (Unspecified)
system.caches.L2Cache_Controller.MT_MB.L1_GETS |          10     11.76%     11.76% |          13     15.29%     27.06% |          13     15.29%     42.35% |          15     17.65%     60.00% |           8      9.41%     69.41% |           7      8.24%     77.65% |           4      4.71%     82.35% |          15     17.65%    100.00% (Unspecified)
system.caches.L2Cache_Controller.MT_MB.L1_GETS::total           85                       (Unspecified)
system.caches.L2Cache_Controller.MT_MB.L1_GETX |           0      0.00%      0.00% |           7     25.93%     25.93% |           0      0.00%     25.93% |          17     62.96%     88.89% |           0      0.00%     88.89% |           3     11.11%    100.00% |           0      0.00%    100.00% |           0      0.00%    100.00% (Unspecified)
system.caches.L2Cache_Controller.MT_MB.L1_GETX::total           27                       (Unspecified)
system.caches.L2Cache_Controller.MT_MB.Exclusive_Unblock |      728039     12.54%     12.54% |      725826     12.51%     25.05% |      720983     12.42%     37.47% |      736422     12.69%     50.16% |      720845     12.42%     62.58% |      727219     12.53%     75.11% |      720678     12.42%     87.52% |      724229     12.48%    100.00% (Unspecified)
system.caches.L2Cache_Controller.MT_MB.Exclusive_Unblock::total      5804241                       (Unspecified)
system.caches.L2Cache_Controller.MT_IIB.L1_GET_INSTR |           0      0.00%      0.00% |           0      0.00%      0.00% |           0      0.00%      0.00% |           0      0.00%      0.00% |           0      0.00%      0.00% |           0      0.00%      0.00% |           6    100.00%    100.00% |           0      0.00%    100.00% (Unspecified)
system.caches.L2Cache_Controller.MT_IIB.L1_GET_INSTR::total            6                       (Unspecified)
system.caches.L2Cache_Controller.MT_IIB.L1_GETS |          23     12.23%     12.23% |          24     12.77%     25.00% |           9      4.79%     29.79% |           8      4.26%     34.04% |           5      2.66%     36.70% |          14      7.45%     44.15% |          91     48.40%     92.55% |          14      7.45%    100.00% (Unspecified)
system.caches.L2Cache_Controller.MT_IIB.L1_GETS::total          188                       (Unspecified)
system.caches.L2Cache_Controller.MT_IIB.L1_PUTX |           0      0.00%      0.00% |           0      0.00%      0.00% |           0      0.00%      0.00% |           1     33.33%     33.33% |           0      0.00%     33.33% |           1     33.33%     66.67% |           1     33.33%    100.00% |           0      0.00%    100.00% (Unspecified)
system.caches.L2Cache_Controller.MT_IIB.L1_PUTX::total            3                       (Unspecified)
system.caches.L2Cache_Controller.MT_IIB.WB_Data |         181      1.18%      1.18% |        7185     46.81%     47.99% |         153      1.00%     48.99% |         144      0.94%     49.93% |         132      0.86%     50.79% |        7185     46.81%     97.60% |         244      1.59%     99.19% |         124      0.81%    100.00% (Unspecified)
system.caches.L2Cache_Controller.MT_IIB.WB_Data::total        15348                       (Unspecified)
system.caches.L2Cache_Controller.MT_IIB.WB_Data_clean |      115697     13.66%     13.66% |      104561     12.35%     26.01% |      103347     12.21%     38.22% |      105021     12.40%     50.62% |      103962     12.28%     62.90% |      104591     12.35%     75.26% |      104472     12.34%     87.60% |      105030     12.40%    100.00% (Unspecified)
system.caches.L2Cache_Controller.MT_IIB.WB_Data_clean::total       846681                       (Unspecified)
system.caches.L2Cache_Controller.MT_IIB.Unblock |           5     15.15%     15.15% |           5     15.15%     30.30% |           1      3.03%     33.33% |           9     27.27%     60.61% |           1      3.03%     63.64% |           5     15.15%     78.79% |           4     12.12%     90.91% |           3      9.09%    100.00% (Unspecified)
system.caches.L2Cache_Controller.MT_IIB.Unblock::total           33                       (Unspecified)
system.caches.L2Cache_Controller.MT_IB.WB_Data |           0      0.00%      0.00% |           2    100.00%    100.00% |           0      0.00%    100.00% |           0      0.00%    100.00% |           0      0.00%    100.00% |           0      0.00%    100.00% |           0      0.00%    100.00% |           0      0.00%    100.00% (Unspecified)
system.caches.L2Cache_Controller.MT_IB.WB_Data::total            2                       (Unspecified)
system.caches.L2Cache_Controller.MT_IB.WB_Data_clean |           5     16.13%     16.13% |           3      9.68%     25.81% |           1      3.23%     29.03% |           9     29.03%     58.06% |           1      3.23%     61.29% |           5     16.13%     77.42% |           4     12.90%     90.32% |           3      9.68%    100.00% (Unspecified)
system.caches.L2Cache_Controller.MT_IB.WB_Data_clean::total           31                       (Unspecified)
system.caches.L2Cache_Controller.MT_SB.L1_GETS |          11     37.93%     37.93% |           9     31.03%     68.97% |           3     10.34%     79.31% |           0      0.00%     79.31% |           2      6.90%     86.21% |           0      0.00%     86.21% |           4     13.79%    100.00% |           0      0.00%    100.00% (Unspecified)
system.caches.L2Cache_Controller.MT_SB.L1_GETS::total           29                       (Unspecified)
system.caches.L2Cache_Controller.MT_SB.L1_UPGRADE |           0      0.00%      0.00% |           4      8.70%      8.70% |           0      0.00%      8.70% |           0      0.00%      8.70% |           0      0.00%      8.70% |           8     17.39%     26.09% |          34     73.91%    100.00% |           0      0.00%    100.00% (Unspecified)
system.caches.L2Cache_Controller.MT_SB.L1_UPGRADE::total           46                       (Unspecified)
system.caches.L2Cache_Controller.MT_SB.Unblock |      115878     13.44%     13.44% |      111746     12.96%     26.41% |      103500     12.01%     38.41% |      105165     12.20%     50.61% |      104094     12.08%     62.69% |      111776     12.97%     75.65% |      104716     12.15%     87.80% |      105154     12.20%    100.00% (Unspecified)
system.caches.L2Cache_Controller.MT_SB.Unblock::total       862029                       (Unspecified)
system.caches.RequestType.LD.latency_hist_seqr::bucket_size          512                       (Unspecified)
system.caches.RequestType.LD.latency_hist_seqr::max_bucket         5119                       (Unspecified)
system.caches.RequestType.LD.latency_hist_seqr::samples     52306760                       (Unspecified)
system.caches.RequestType.LD.latency_hist_seqr::mean    65.430452                       (Unspecified)
system.caches.RequestType.LD.latency_hist_seqr::gmean     4.990598                       (Unspecified)
system.caches.RequestType.LD.latency_hist_seqr::stdev   223.291647                       (Unspecified)
system.caches.RequestType.LD.latency_hist_seqr |    49068659     93.81%     93.81% |     2660756      5.09%     98.90% |      372502      0.71%     99.61% |      132724      0.25%     99.86% |       57548      0.11%     99.97% |       12593      0.02%    100.00% |        1785      0.00%    100.00% |         173      0.00%    100.00% |          19      0.00%    100.00% |           1      0.00%    100.00% (Unspecified)
system.caches.RequestType.LD.latency_hist_seqr::total     52306760                       (Unspecified)
system.caches.RequestType.LD.hit_latency_hist_seqr::bucket_size            1                       (Unspecified)
system.caches.RequestType.LD.hit_latency_hist_seqr::max_bucket            9                       (Unspecified)
system.caches.RequestType.LD.hit_latency_hist_seqr::samples     30514606                       (Unspecified)
system.caches.RequestType.LD.hit_latency_hist_seqr::mean     1.130967                       (Unspecified)
system.caches.RequestType.LD.hit_latency_hist_seqr::gmean     1.082698                       (Unspecified)
system.caches.RequestType.LD.hit_latency_hist_seqr::stdev     0.447556                       (Unspecified)
system.caches.RequestType.LD.hit_latency_hist_seqr |           0      0.00%      0.00% |    27641335     90.58%     90.58% |     1933202      6.34%     96.92% |      770278      2.52%     99.44% |      156647      0.51%     99.96% |       13008      0.04%    100.00% |         136      0.00%    100.00% |           0      0.00%    100.00% |           0      0.00%    100.00% |           0      0.00%    100.00% (Unspecified)
system.caches.RequestType.LD.hit_latency_hist_seqr::total     30514606                       (Unspecified)
system.caches.RequestType.LD.miss_latency_hist_seqr::bucket_size          512                       (Unspecified)
system.caches.RequestType.LD.miss_latency_hist_seqr::max_bucket         5119                       (Unspecified)
system.caches.RequestType.LD.miss_latency_hist_seqr::samples     21792154                       (Unspecified)
system.caches.RequestType.LD.miss_latency_hist_seqr::mean   155.466226                       (Unspecified)
system.caches.RequestType.LD.miss_latency_hist_seqr::gmean    42.405902                       (Unspecified)
system.caches.RequestType.LD.miss_latency_hist_seqr::stdev   325.236532                       (Unspecified)
system.caches.RequestType.LD.miss_latency_hist_seqr |    18554053     85.14%     85.14% |     2660756     12.21%     97.35% |      372502      1.71%     99.06% |      132724      0.61%     99.67% |       57548      0.26%     99.93% |       12593      0.06%     99.99% |        1785      0.01%    100.00% |         173      0.00%    100.00% |          19      0.00%    100.00% |           1      0.00%    100.00% (Unspecified)
system.caches.RequestType.LD.miss_latency_hist_seqr::total     21792154                       (Unspecified)
system.caches.RequestType.ST.latency_hist_seqr::bucket_size          512                       (Unspecified)
system.caches.RequestType.ST.latency_hist_seqr::max_bucket         5119                       (Unspecified)
system.caches.RequestType.ST.latency_hist_seqr::samples      1022956                       (Unspecified)
system.caches.RequestType.ST.latency_hist_seqr::mean     2.699298                       (Unspecified)
system.caches.RequestType.ST.latency_hist_seqr::gmean     1.083954                       (Unspecified)
system.caches.RequestType.ST.latency_hist_seqr::stdev    36.350783                       (Unspecified)
system.caches.RequestType.ST.latency_hist_seqr |     1021447     99.85%     99.85% |        1220      0.12%     99.97% |         183      0.02%     99.99% |          71      0.01%    100.00% |          29      0.00%    100.00% |           4      0.00%    100.00% |           2      0.00%    100.00% |           0      0.00%    100.00% |           0      0.00%    100.00% |           0      0.00%    100.00% (Unspecified)
system.caches.RequestType.ST.latency_hist_seqr::total      1022956                       (Unspecified)
system.caches.RequestType.ST.hit_latency_hist_seqr::bucket_size          256                       (Unspecified)
system.caches.RequestType.ST.hit_latency_hist_seqr::max_bucket         2559                       (Unspecified)
system.caches.RequestType.ST.hit_latency_hist_seqr::samples      1004828                       (Unspecified)
system.caches.RequestType.ST.hit_latency_hist_seqr::mean     1.084021                       (Unspecified)
system.caches.RequestType.ST.hit_latency_hist_seqr::gmean     1.022636                       (Unspecified)
system.caches.RequestType.ST.hit_latency_hist_seqr::stdev     6.541079                       (Unspecified)
system.caches.RequestType.ST.hit_latency_hist_seqr |     1004749     99.99%     99.99% |          32      0.00%    100.00% |          16      0.00%    100.00% |          18      0.00%    100.00% |          10      0.00%    100.00% |           1      0.00%    100.00% |           1      0.00%    100.00% |           1      0.00%    100.00% |           0      0.00%    100.00% |           0      0.00%    100.00% (Unspecified)
system.caches.RequestType.ST.hit_latency_hist_seqr::total      1004828                       (Unspecified)
system.caches.RequestType.ST.miss_latency_hist_seqr::bucket_size          512                       (Unspecified)
[...]
system.o3Cpu7.iew.squashCycles                 141101                       # Number of cycles IEW is squashing (Cycle)
system.o3Cpu7.iew.blockCycles                25798988                       # Number of cycles IEW is blocking (Cycle)
system.o3Cpu7.iew.unblockCycles              18167096                       # Number of cycles IEW is unblocking (Cycle)
system.o3Cpu7.iew.dispatchedInsts            43785916                       # Number of instructions dispatched to IQ (Count)
system.o3Cpu7.iew.dispSquashedInsts             20315                       # Number of squashed instructions skipped by dispatch (Count)
system.o3Cpu7.iew.dispLoadInsts               8387411                       # Number of dispatched load instructions (Count)
system.o3Cpu7.iew.dispStoreInsts               242745                       # Number of dispatched store instructions (Count)
system.o3Cpu7.iew.dispNonSpecInsts               3284                       # Number of dispatched non-speculative instructions (Count)
system.o3Cpu7.iew.iqFullEvents                  49853                       # Number of times the IQ has become full, causing a stall (Count)
system.o3Cpu7.iew.lsqFullEvents              18065506                       # Number of times the LSQ has become full, causing a stall (Count)
system.o3Cpu7.iew.memOrderViolationEvents         9581                       # Number of memory order violations (Count)
system.o3Cpu7.iew.predictedTakenIncorrect        96478                       # Number of branches that were predicted taken incorrectly (Count)
system.o3Cpu7.iew.predictedNotTakenIncorrect        46640                       # Number of branches that were predicted not taken incorrectly (Count)
system.o3Cpu7.iew.branchMispredicts            143118                       # Number of branch mispredicts detected at execute (Count)
system.o3Cpu7.iew.instsToCommit              38880885                       # Cumulative count of insts sent to commit (Count)
system.o3Cpu7.iew.writebackCount             38832749                       # Cumulative count of insts written-back (Count)
system.o3Cpu7.iew.producerInst               32747745                       # Number of instructions producing a value (Count)
system.o3Cpu7.iew.consumerInst               46486937                       # Number of instructions consuming a value (Count)
system.o3Cpu7.iew.wbRate                     0.270373                       # Insts written-back per cycle ((Count/Cycle))
system.o3Cpu7.iew.wbFanout                   0.704450                       # Average fanout of values written-back ((Count/Count))
system.o3Cpu7.interrupts.clk_domain.clock         3200                       # Clock period in ticks (Tick)
system.o3Cpu7.lsq0.forwLoads                     7093                       # Number of loads that had data forwarded from stores (Count)
system.o3Cpu7.lsq0.squashedLoads              1661886                       # Number of loads squashed (Count)
system.o3Cpu7.lsq0.ignoredResponses                24                       # Number of memory responses ignored because the instruction is squashed (Count)
system.o3Cpu7.lsq0.memOrderViolation             9581                       # Number of memory ordering violations (Count)
system.o3Cpu7.lsq0.squashedStores              113776                       # Number of stores squashed (Count)
system.o3Cpu7.lsq0.rescheduledLoads                29                       # Number of loads that were rescheduled (Count)
system.o3Cpu7.lsq0.blockedByCache             1869372                       # Number of times an access to memory failed due to the cache being blocked (Count)
system.o3Cpu7.lsq0.loadToUse::samples         6725461                       # Distribution of cycle latency between the first time a load is issued and its completion (Unspecified)
system.o3Cpu7.lsq0.loadToUse::mean         391.710743                       # Distribution of cycle latency between the first time a load is issued and its completion (Unspecified)
system.o3Cpu7.lsq0.loadToUse::stdev        518.111099                       # Distribution of cycle latency between the first time a load is issued and its completion (Unspecified)
system.o3Cpu7.lsq0.loadToUse::0-9             1359770     20.22%     20.22% # Distribution of cycle latency between the first time a load is issued and its completion (Unspecified)
system.o3Cpu7.lsq0.loadToUse::10-19            425207      6.32%     26.54% # Distribution of cycle latency between the first time a load is issued and its completion (Unspecified)
system.o3Cpu7.lsq0.loadToUse::20-29            500541      7.44%     33.98% # Distribution of cycle latency between the first time a load is issued and its completion (Unspecified)
system.o3Cpu7.lsq0.loadToUse::30-39            409633      6.09%     40.07% # Distribution of cycle latency between the first time a load is issued and its completion (Unspecified)
system.o3Cpu7.lsq0.loadToUse::40-49            364061      5.41%     45.49% # Distribution of cycle latency between the first time a load is issued and its completion (Unspecified)
system.o3Cpu7.lsq0.loadToUse::50-59            259659      3.86%     49.35% # Distribution of cycle latency between the first time a load is issued and its completion (Unspecified)
system.o3Cpu7.lsq0.loadToUse::60-69            147206      2.19%     51.54% # Distribution of cycle latency between the first time a load is issued and its completion (Unspecified)
system.o3Cpu7.lsq0.loadToUse::70-79             78220      1.16%     52.70% # Distribution of cycle latency between the first time a load is issued and its completion (Unspecified)
system.o3Cpu7.lsq0.loadToUse::80-89             42408      0.63%     53.33% # Distribution of cycle latency between the first time a load is issued and its completion (Unspecified)
system.o3Cpu7.lsq0.loadToUse::90-99             27301      0.41%     53.74% # Distribution of cycle latency between the first time a load is issued and its completion (Unspecified)
system.o3Cpu7.lsq0.loadToUse::100-109           17750      0.26%     54.00% # Distribution of cycle latency between the first time a load is issued and its completion (Unspecified)
system.o3Cpu7.lsq0.loadToUse::110-119           13703      0.20%     54.20% # Distribution of cycle latency between the first time a load is issued and its completion (Unspecified)
system.o3Cpu7.lsq0.loadToUse::120-129           15325      0.23%     54.43% # Distribution of cycle latency between the first time a load is issued and its completion (Unspecified)
system.o3Cpu7.lsq0.loadToUse::130-139           17514      0.26%     54.69% # Distribution of cycle latency between the first time a load is issued and its completion (Unspecified)
system.o3Cpu7.lsq0.loadToUse::140-149           16781      0.25%     54.94% # Distribution of cycle latency between the first time a load is issued and its completion (Unspecified)
system.o3Cpu7.lsq0.loadToUse::150-159           14217      0.21%     55.15% # Distribution of cycle latency between the first time a load is issued and its completion (Unspecified)
system.o3Cpu7.lsq0.loadToUse::160-169           12108      0.18%     55.33% # Distribution of cycle latency between the first time a load is issued and its completion (Unspecified)
system.o3Cpu7.lsq0.loadToUse::170-179           13314      0.20%     55.53% # Distribution of cycle latency between the first time a load is issued and its completion (Unspecified)
system.o3Cpu7.lsq0.loadToUse::180-189           15628      0.23%     55.76% # Distribution of cycle latency between the first time a load is issued and its completion (Unspecified)
system.o3Cpu7.lsq0.loadToUse::190-199           14789      0.22%     55.98% # Distribution of cycle latency between the first time a load is issued and its completion (Unspecified)
system.o3Cpu7.lsq0.loadToUse::200-209           12283      0.18%     56.17% # Distribution of cycle latency between the first time a load is issued and its completion (Unspecified)
system.o3Cpu7.lsq0.loadToUse::210-219           10812      0.16%     56.33% # Distribution of cycle latency between the first time a load is issued and its completion (Unspecified)
system.o3Cpu7.lsq0.loadToUse::220-229           12312      0.18%     56.51% # Distribution of cycle latency between the first time a load is issued and its completion (Unspecified)
system.o3Cpu7.lsq0.loadToUse::230-239           13788      0.21%     56.71% # Distribution of cycle latency between the first time a load is issued and its completion (Unspecified)
system.o3Cpu7.lsq0.loadToUse::240-249           13125      0.20%     56.91% # Distribution of cycle latency between the first time a load is issued and its completion (Unspecified)
system.o3Cpu7.lsq0.loadToUse::250-259           11147      0.17%     57.08% # Distribution of cycle latency between the first time a load is issued and its completion (Unspecified)
system.o3Cpu7.lsq0.loadToUse::260-269            9510      0.14%     57.22% # Distribution of cycle latency between the first time a load is issued and its completion (Unspecified)
system.o3Cpu7.lsq0.loadToUse::270-279           11006      0.16%     57.38% # Distribution of cycle latency between the first time a load is issued and its completion (Unspecified)
system.o3Cpu7.lsq0.loadToUse::280-289           13802      0.21%     57.59% # Distribution of cycle latency between the first time a load is issued and its completion (Unspecified)
system.o3Cpu7.lsq0.loadToUse::290-299           11901      0.18%     57.76% # Distribution of cycle latency between the first time a load is issued and its completion (Unspecified)
system.o3Cpu7.lsq0.loadToUse::overflows       2840640     42.24%    100.00% # Distribution of cycle latency between the first time a load is issued and its completion (Unspecified)
system.o3Cpu7.lsq0.loadToUse::min_value             2                       # Distribution of cycle latency between the first time a load is issued and its completion (Unspecified)
system.o3Cpu7.lsq0.loadToUse::max_value          5279                       # Distribution of cycle latency between the first time a load is issued and its completion (Unspecified)
system.o3Cpu7.lsq0.loadToUse::total           6725461                       # Distribution of cycle latency between the first time a load is issued and its completion (Unspecified)
system.o3Cpu7.mmu.dtb.rdAccesses              7993990                       # TLB accesses on read requests (Count)
system.o3Cpu7.mmu.dtb.wrAccesses               155104                       # TLB accesses on write requests (Count)
system.o3Cpu7.mmu.dtb.rdMisses                 455945                       # TLB misses on read requests (Count)
system.o3Cpu7.mmu.dtb.wrMisses                  10364                       # TLB misses on write requests (Count)
system.o3Cpu7.mmu.dtb.walker.power_state.pwrStateResidencyTicks::UNDEFINED  29737791600                       # Cumulative time (in ticks) in various power states (Tick)
system.o3Cpu7.mmu.itb.rdAccesses                    0                       # TLB accesses on read requests (Count)
system.o3Cpu7.mmu.itb.wrAccesses               729322                       # TLB accesses on write requests (Count)
system.o3Cpu7.mmu.itb.rdMisses                      0                       # TLB misses on read requests (Count)
system.o3Cpu7.mmu.itb.wrMisses                    171                       # TLB misses on write requests (Count)
system.o3Cpu7.mmu.itb.walker.power_state.pwrStateResidencyTicks::UNDEFINED  29737791600                       # Cumulative time (in ticks) in various power states (Tick)
system.o3Cpu7.power_state.pwrStateResidencyTicks::OFF  29737791600                       # Cumulative time (in ticks) in various power states (Tick)
system.o3Cpu7.rename.squashCycles              141101                       # Number of cycles rename is squashing (Cycle)
system.o3Cpu7.rename.idleCycles               2571924                       # Number of cycles rename is idle (Cycle)
system.o3Cpu7.rename.blockCycles             60907672                       # Number of cycles rename is blocking (Cycle)
system.o3Cpu7.rename.serializeStallCycles       346608                       # count of cycles rename stalled for serializing inst (Cycle)
system.o3Cpu7.rename.runCycles                2763400                       # Number of cycles rename is running (Cycle)
system.o3Cpu7.rename.unblockCycles           69360409                       # Number of cycles rename is unblocking (Cycle)
system.o3Cpu7.rename.renamedInsts            45606192                       # Number of instructions processed by rename (Count)
system.o3Cpu7.rename.ROBFullEvents             603971                       # Number of times rename has blocked due to ROB full (Count)
system.o3Cpu7.rename.IQFullEvents             9811415                       # Number of times rename has blocked due to IQ full (Count)
system.o3Cpu7.rename.LQFullEvents            67491677                       # Number of times rename has blocked due to LQ full (Count)
system.o3Cpu7.rename.SQFullEvents                1707                       # Number of times rename has blocked due to SQ full (Count)
system.o3Cpu7.rename.renamedOperands         83605358                       # Number of destination operands rename has renamed (Count)
system.o3Cpu7.rename.lookups                147315275                       # Number of register rename lookups that rename has made (Count)
system.o3Cpu7.rename.intLookups              44018407                       # Number of integer rename lookups (Count)
system.o3Cpu7.rename.fpLookups               16449878                       # Number of floating rename lookups (Count)
system.o3Cpu7.rename.committedMaps           64127449                       # Number of HB maps that are committed (Count)
system.o3Cpu7.rename.undoneMaps              19477301                       # Number of HB maps that are undone due to squashing (Count)
system.o3Cpu7.rename.serializing                 1453                       # count of serializing insts renamed (Count)
system.o3Cpu7.rename.tempSerializing             1529                       # count of temporary serializing insts renamed (Count)
system.o3Cpu7.rename.skidInsts               14111667                       # count of insts added to the skid buffer (Count)
system.o3Cpu7.rob.reads                     179103286                       # The number of ROB reads (Count)
system.o3Cpu7.rob.writes                     88244226                       # The number of ROB writes (Count)
system.o3Cpu7.thread_0.numInsts              17652424                       # Number of Instructions committed (Count)
system.o3Cpu7.thread_0.numOps                34548443                       # Number of Ops committed (Count)
system.o3Cpu7.thread_0.numMemRefs                   0                       # Number of Memory References (Count)
system.pc.bad_addr.power_state.pwrStateResidencyTicks::UNDEFINED  29737791600                       # Cumulative time (in ticks) in various power states (Tick)
system.pc.com_1.power_state.pwrStateResidencyTicks::UNDEFINED  29737791600                       # Cumulative time (in ticks) in various power states (Tick)
system.pc.default_bus.power_state.pwrStateResidencyTicks::UNDEFINED  29737791600                       # Cumulative time (in ticks) in various power states (Tick)
system.pc.empty_isa.power_state.pwrStateResidencyTicks::UNDEFINED  29737791600                       # Cumulative time (in ticks) in various power states (Tick)
system.pc.fake_com_2.power_state.pwrStateResidencyTicks::UNDEFINED  29737791600                       # Cumulative time (in ticks) in various power states (Tick)
system.pc.fake_com_3.power_state.pwrStateResidencyTicks::UNDEFINED  29737791600                       # Cumulative time (in ticks) in various power states (Tick)
system.pc.fake_com_4.power_state.pwrStateResidencyTicks::UNDEFINED  29737791600                       # Cumulative time (in ticks) in various power states (Tick)
system.pc.fake_floppy.power_state.pwrStateResidencyTicks::UNDEFINED  29737791600                       # Cumulative time (in ticks) in various power states (Tick)
system.pc.pci_host.power_state.pwrStateResidencyTicks::UNDEFINED  29737791600                       # Cumulative time (in ticks) in various power states (Tick)
system.pc.south_bridge.cmos.power_state.pwrStateResidencyTicks::UNDEFINED  29737791600                       # Cumulative time (in ticks) in various power states (Tick)
system.pc.south_bridge.dma1.power_state.pwrStateResidencyTicks::UNDEFINED  29737791600                       # Cumulative time (in ticks) in various power states (Tick)
system.pc.south_bridge.ide.disks0.IdeDisk.dmaReadFullPages            0                       # Number of full page size DMA reads (not PRD). (Count)
system.pc.south_bridge.ide.disks0.IdeDisk.dmaReadBytes            0                       # Number of bytes transfered via DMA reads (not PRD). (Byte)
system.pc.south_bridge.ide.disks0.IdeDisk.dmaReadTxs            0                       # Number of DMA read transactions (not PRD). (Count)
system.pc.south_bridge.ide.disks0.IdeDisk.dmaWriteFullPages            0                       # Number of full page size DMA writes. (Count)
system.pc.south_bridge.ide.disks0.IdeDisk.dmaWriteBytes            0                       # Number of bytes transfered via DMA writes. (Byte)
system.pc.south_bridge.ide.disks0.IdeDisk.dmaWriteTxs            0                       # Number of DMA write transactions. (Count)
system.pc.south_bridge.ide.disks1.IdeDisk.dmaReadFullPages            0                       # Number of full page size DMA reads (not PRD). (Count)
system.pc.south_bridge.ide.disks1.IdeDisk.dmaReadBytes            0                       # Number of bytes transfered via DMA reads (not PRD). (Byte)
system.pc.south_bridge.ide.disks1.IdeDisk.dmaReadTxs            0                       # Number of DMA read transactions (not PRD). (Count)
system.pc.south_bridge.ide.disks1.IdeDisk.dmaWriteFullPages            0                       # Number of full page size DMA writes. (Count)
system.pc.south_bridge.ide.disks1.IdeDisk.dmaWriteBytes            0                       # Number of bytes transfered via DMA writes. (Byte)
system.pc.south_bridge.ide.disks1.IdeDisk.dmaWriteTxs            0                       # Number of DMA write transactions. (Count)
system.pc.south_bridge.ide.power_state.pwrStateResidencyTicks::UNDEFINED  29737791600                       # Cumulative time (in ticks) in various power states (Tick)
system.pc.south_bridge.io_apic.power_state.pwrStateResidencyTicks::UNDEFINED  29737791600                       # Cumulative time (in ticks) in various power states (Tick)
system.pc.south_bridge.keyboard.power_state.pwrStateResidencyTicks::UNDEFINED  29737791600                       # Cumulative time (in ticks) in various power states (Tick)
system.pc.south_bridge.pic1.power_state.pwrStateResidencyTicks::UNDEFINED  29737791600                       # Cumulative time (in ticks) in various power states (Tick)
system.pc.south_bridge.pic2.power_state.pwrStateResidencyTicks::UNDEFINED  29737791600                       # Cumulative time (in ticks) in various power states (Tick)
system.pc.south_bridge.pit.power_state.pwrStateResidencyTicks::UNDEFINED  29737791600                       # Cumulative time (in ticks) in various power states (Tick)
system.pc.south_bridge.speaker.power_state.pwrStateResidencyTicks::UNDEFINED  29737791600                       # Cumulative time (in ticks) in various power states (Tick)
system.workload.inst.arm                            0                       # number of arm instructions executed (Count)
system.workload.inst.quiesce                        0                       # number of quiesce instructions executed (Count)

---------- End Simulation Statistics   ----------
