
---------- Begin Simulation Statistics ----------
simSeconds                                   0.047546                       # Number of seconds simulated (Second)
simTicks                                  47546499640                       # Number of ticks simulated (Tick)
finalTick                                21716841314400                       # Number of ticks from beginning of simulation (restored from checkpoints and never reset) (Tick)
simFreq                                  1000000000000                       # The number of ticks per simulated second ((Tick/Second))
hostSeconds                                   7253.21                       # Real time elapsed on the host (Second)
hostTickRate                                  6555234                       # The number of ticks simulated per host second (ticks/s) ((Tick/Second))
hostMemory                                   19846768                       # Number of bytes of host memory used (Byte)
simInsts                                     63177465                       # Number of instructions simulated (Count)
simOps                                      102958805                       # Number of ops (including micro ops) simulated (Count)
hostInstRate                                     8710                       # Simulator instruction rate (inst/s) ((Count/Second))
hostOpRate                                      14195                       # Simulator op (including micro ops) rate (op/s) ((Count/Second))
system.caches.delayHistogram::bucket_size           16                       # delay histogram for all message (Unspecified)
system.caches.delayHistogram::max_bucket          159                       # delay histogram for all message (Unspecified)
system.caches.delayHistogram::samples        39336173                       # delay histogram for all message (Unspecified)
system.caches.delayHistogram::mean           0.668894                       # delay histogram for all message (Unspecified)
system.caches.delayHistogram::stdev          2.279431                       # delay histogram for all message (Unspecified)
system.caches.delayHistogram             |    39289543     99.88%     99.88% |       46063      0.12%    100.00% |         397      0.00%    100.00% |         119      0.00%    100.00% |          42      0.00%    100.00% |           6      0.00%    100.00% |           3      0.00%    100.00% |           0      0.00%    100.00% |           0      0.00%    100.00% |           0      0.00%    100.00% # delay histogram for all message (Unspecified)
system.caches.delayHistogram::total          39336173                       # delay histogram for all message (Unspecified)
system.caches.m_outstandReqHistSeqr::bucket_size            2                       (Unspecified)
system.caches.m_outstandReqHistSeqr::max_bucket           19                       (Unspecified)
system.caches.m_outstandReqHistSeqr::samples     37406691                       (Unspecified)
system.caches.m_outstandReqHistSeqr::mean     3.895697                       (Unspecified)
system.caches.m_outstandReqHistSeqr::gmean     2.585841                       (Unspecified)
system.caches.m_outstandReqHistSeqr::stdev     3.511900                       (Unspecified)
system.caches.m_outstandReqHistSeqr      |    14884061     39.79%     39.79% |     7613063     20.35%     60.14% |     4280378     11.44%     71.58% |     3766380     10.07%     81.65% |     2494036      6.67%     88.32% |     3504181      9.37%     97.69% |      512560      1.37%     99.06% |      150025      0.40%     99.46% |      202007      0.54%    100.00% |           0      0.00%    100.00% (Unspecified)
system.caches.m_outstandReqHistSeqr::total     37406691                       (Unspecified)
system.caches.m_latencyHistSeqr::bucket_size          512                       (Unspecified)
system.caches.m_latencyHistSeqr::max_bucket         5119                       (Unspecified)
system.caches.m_latencyHistSeqr::samples     37410653                       (Unspecified)
system.caches.m_latencyHistSeqr::mean       93.536390                       (Unspecified)
system.caches.m_latencyHistSeqr::gmean       2.603839                       (Unspecified)
system.caches.m_latencyHistSeqr::stdev     252.026215                       (Unspecified)
system.caches.m_latencyHistSeqr          |    34414965     91.99%     91.99% |     2746927      7.34%     99.34% |      153485      0.41%     99.75% |        8574      0.02%     99.77% |       48113      0.13%     99.90% |       36406      0.10%     99.99% |        2091      0.01%    100.00% |          91      0.00%    100.00% |           1      0.00%    100.00% |           0      0.00%    100.00% (Unspecified)
system.caches.m_latencyHistSeqr::total       37410653                       (Unspecified)
system.caches.m_hitLatencyHistSeqr::bucket_size          512                       (Unspecified)
system.caches.m_hitLatencyHistSeqr::max_bucket         5119                       (Unspecified)
system.caches.m_hitLatencyHistSeqr::samples     31753170                       (Unspecified)
system.caches.m_hitLatencyHistSeqr::mean     1.016375                       (Unspecified)
system.caches.m_hitLatencyHistSeqr::gmean     1.003846                       (Unspecified)
system.caches.m_hitLatencyHistSeqr::stdev     3.452127                       (Unspecified)
system.caches.m_hitLatencyHistSeqr       |    31752907    100.00%    100.00% |         167      0.00%    100.00% |          59      0.00%    100.00% |          21      0.00%    100.00% |          10      0.00%    100.00% |           3      0.00%    100.00% |           3      0.00%    100.00% |           0      0.00%    100.00% |           0      0.00%    100.00% |           0      0.00%    100.00% (Unspecified)
system.caches.m_hitLatencyHistSeqr::total     31753170                       (Unspecified)
system.caches.m_missLatencyHistSeqr::bucket_size          512                       (Unspecified)
system.caches.m_missLatencyHistSeqr::max_bucket         5119                       (Unspecified)
system.caches.m_missLatencyHistSeqr::samples      5657483                       (Unspecified)
system.caches.m_missLatencyHistSeqr::mean   612.813912                       (Unspecified)
system.caches.m_missLatencyHistSeqr::gmean   548.192067                       (Unspecified)
system.caches.m_missLatencyHistSeqr::stdev   319.771982                       (Unspecified)
system.caches.m_missLatencyHistSeqr      |     2662058     47.05%     47.05% |     2746760     48.55%     95.60% |      153426      2.71%     98.32% |        8553      0.15%     98.47% |       48103      0.85%     99.32% |       36403      0.64%     99.96% |        2088      0.04%    100.00% |          91      0.00%    100.00% |           1      0.00%    100.00% |           0      0.00%    100.00% (Unspecified)
system.caches.m_missLatencyHistSeqr::total      5657483                       (Unspecified)
system.caches.delayVCHist.vnet_0::bucket_size           16                       # delay histogram for vnet_0 (Unspecified)
system.caches.delayVCHist.vnet_0::max_bucket          159                       # delay histogram for vnet_0 (Unspecified)
system.caches.delayVCHist.vnet_0::samples     16806231                       # delay histogram for vnet_0 (Unspecified)
system.caches.delayVCHist.vnet_0::mean       1.518343                       # delay histogram for vnet_0 (Unspecified)
system.caches.delayVCHist.vnet_0::stdev      3.261702                       # delay histogram for vnet_0 (Unspecified)
system.caches.delayVCHist.vnet_0         |    16760747     99.73%     99.73% |       44989      0.27%    100.00% |         326      0.00%    100.00% |         118      0.00%    100.00% |          42      0.00%    100.00% |           6      0.00%    100.00% |           3      0.00%    100.00% |           0      0.00%    100.00% |           0      0.00%    100.00% |           0      0.00%    100.00% # delay histogram for vnet_0 (Unspecified)
system.caches.delayVCHist.vnet_0::total      16806231                       # delay histogram for vnet_0 (Unspecified)
system.caches.delayVCHist.vnet_1::bucket_size            8                       # delay histogram for vnet_1 (Unspecified)
system.caches.delayVCHist.vnet_1::max_bucket           79                       # delay histogram for vnet_1 (Unspecified)
system.caches.delayVCHist.vnet_1::samples     22456466                       # delay histogram for vnet_1 (Unspecified)
system.caches.delayVCHist.vnet_1::mean       0.035361                       # delay histogram for vnet_1 (Unspecified)
system.caches.delayVCHist.vnet_1::stdev      0.443345                       # delay histogram for vnet_1 (Unspecified)
system.caches.delayVCHist.vnet_1         |    22443827     99.94%     99.94% |       11493      0.05%     99.99% |         894      0.00%    100.00% |         180      0.00%    100.00% |          64      0.00%    100.00% |           7      0.00%    100.00% |           0      0.00%    100.00% |           1      0.00%    100.00% |           0      0.00%    100.00% |           0      0.00%    100.00% # delay histogram for vnet_1 (Unspecified)
system.caches.delayVCHist.vnet_1::total      22456466                       # delay histogram for vnet_1 (Unspecified)
system.caches.delayVCHist.vnet_2::bucket_size            1                       # delay histogram for vnet_2 (Unspecified)
system.caches.delayVCHist.vnet_2::max_bucket            9                       # delay histogram for vnet_2 (Unspecified)
system.caches.delayVCHist.vnet_2::samples        73476                       # delay histogram for vnet_2 (Unspecified)
system.caches.delayVCHist.vnet_2::mean       0.000408                       # delay histogram for vnet_2 (Unspecified)
system.caches.delayVCHist.vnet_2::stdev      0.028573                       # delay histogram for vnet_2 (Unspecified)
system.caches.delayVCHist.vnet_2         |       73461     99.98%     99.98% |           0      0.00%     99.98% |          15      0.02%    100.00% |           0      0.00%    100.00% |           0      0.00%    100.00% |           0      0.00%    100.00% |           0      0.00%    100.00% |           0      0.00%    100.00% |           0      0.00%    100.00% |           0      0.00%    100.00% # delay histogram for vnet_2 (Unspecified)
system.caches.delayVCHist.vnet_2::total         73476                       # delay histogram for vnet_2 (Unspecified)
system.caches.L1Cache_Controller.Load    |      815510     12.91%     12.91% |      780308     12.36%     25.27% |      802896     12.71%     37.98% |      793186     12.56%     50.54% |      761089     12.05%     62.60% |      784446     12.42%     75.02% |      788807     12.49%     87.51% |      788739     12.49%    100.00% (Unspecified)
system.caches.L1Cache_Controller.Load::total      6314981                       (Unspecified)
system.caches.L1Cache_Controller.Ifetch  |     1060408     13.65%     13.65% |      888592     11.44%     25.09% |     1064932     13.71%     38.80% |      959765     12.36%     51.16% |      877575     11.30%     62.45% |     1013345     13.05%     75.50% |      917094     11.81%     87.31% |      986104     12.69%    100.00% (Unspecified)
system.caches.L1Cache_Controller.Ifetch::total      7767815                       (Unspecified)
system.caches.L1Cache_Controller.Store   |     2946859     12.63%     12.63% |     2891678     12.40%     25.03% |     2922707     12.53%     37.56% |     2914795     12.49%     50.05% |     2902711     12.44%     62.49% |     2914856     12.50%     74.99% |     2921647     12.52%     87.51% |     2912621     12.49%    100.00% (Unspecified)
system.caches.L1Cache_Controller.Store::total     23327874                       (Unspecified)
system.caches.L1Cache_Controller.Inv     |        7606     10.49%     10.49% |        7721     10.65%     21.14% |       10714     14.78%     35.91% |        8548     11.79%     47.70% |        9781     13.49%     61.19% |       11713     16.15%     77.34% |        8224     11.34%     88.68% |        8206     11.32%    100.00% (Unspecified)
system.caches.L1Cache_Controller.Inv::total        72513                       (Unspecified)
system.caches.L1Cache_Controller.L1_Replacement |      701988     12.49%     12.49% |      704196     12.52%     25.01% |      695511     12.37%     37.38% |      703675     12.52%     49.90% |      708436     12.60%     62.50% |      698457     12.42%     74.92% |      709796     12.62%     87.54% |      700279     12.46%    100.00% (Unspecified)
system.caches.L1Cache_Controller.L1_Replacement::total      5622338                       (Unspecified)
system.caches.L1Cache_Controller.Fwd_GETX |           0      0.00%      0.00% |           2    100.00%    100.00% |           0      0.00%    100.00% |           0      0.00%    100.00% |           0      0.00%    100.00% |           0      0.00%    100.00% |           0      0.00%    100.00% |           0      0.00%    100.00% (Unspecified)
system.caches.L1Cache_Controller.Fwd_GETX::total            2                       (Unspecified)
system.caches.L1Cache_Controller.Fwd_GETS |         650     67.64%     67.64% |         253     26.33%     93.96% |          16      1.66%     95.63% |          15      1.56%     97.19% |           4      0.42%     97.61% |           6      0.62%     98.23% |           2      0.21%     98.44% |          15      1.56%    100.00% (Unspecified)
system.caches.L1Cache_Controller.Fwd_GETS::total          961                       (Unspecified)
system.caches.L1Cache_Controller.Data    |         103    100.00%    100.00% |           0      0.00%    100.00% |           0      0.00%    100.00% |           0      0.00%    100.00% |           0      0.00%    100.00% |           0      0.00%    100.00% |           0      0.00%    100.00% |           0      0.00%    100.00% (Unspecified)
system.caches.L1Cache_Controller.Data::total          103                       (Unspecified)
system.caches.L1Cache_Controller.Data_Exclusive |      328493     12.33%     12.33% |      337569     12.67%     25.01% |      324728     12.19%     37.20% |      333933     12.54%     49.73% |      340209     12.77%     62.51% |      328601     12.34%     74.84% |      339140     12.73%     87.58% |      330913     12.42%    100.00% (Unspecified)
system.caches.L1Cache_Controller.Data_Exclusive::total      2663586                       (Unspecified)
system.caches.L1Cache_Controller.DataS_fromL1 |          53      5.52%      5.52% |         509     52.97%     58.48% |         284     29.55%     88.03% |          49      5.10%     93.13% |          20      2.08%     95.21% |          20      2.08%     97.29% |          12      1.25%     98.54% |          14      1.46%    100.00% (Unspecified)
system.caches.L1Cache_Controller.DataS_fromL1::total          961                       (Unspecified)
system.caches.L1Cache_Controller.Data_all_Acks |      378387     12.64%     12.64% |      370460     12.38%     25.02% |      374803     12.52%     37.55% |      373960     12.50%     50.04% |      372438     12.45%     62.49% |      374089     12.50%     74.99% |      374884     12.53%     87.51% |      373635     12.49%    100.00% (Unspecified)
system.caches.L1Cache_Controller.Data_all_Acks::total      2992656                       (Unspecified)
system.caches.L1Cache_Controller.Ack     |        1065    100.00%    100.00% |           0      0.00%    100.00% |           0      0.00%    100.00% |           0      0.00%    100.00% |           0      0.00%    100.00% |           0      0.00%    100.00% |           0      0.00%    100.00% |           0      0.00%    100.00% (Unspecified)
system.caches.L1Cache_Controller.Ack::total         1065                       (Unspecified)
system.caches.L1Cache_Controller.Ack_all |         280    100.00%    100.00% |           0      0.00%    100.00% |           0      0.00%    100.00% |           0      0.00%    100.00% |           0      0.00%    100.00% |           0      0.00%    100.00% |           0      0.00%    100.00% |           0      0.00%    100.00% (Unspecified)
system.caches.L1Cache_Controller.Ack_all::total          280                       (Unspecified)
system.caches.L1Cache_Controller.WB_Ack  |      695620     12.51%     12.51% |      697759     12.55%     25.06% |      686078     12.34%     37.40% |      696372     12.53%     49.93% |      699878     12.59%     62.51% |      687911     12.37%     74.89% |      702787     12.64%     87.53% |      693428     12.47%    100.00% (Unspecified)
system.caches.L1Cache_Controller.WB_Ack::total      5559833                       (Unspecified)
system.caches.L1Cache_Controller.NP.Load |      331604     12.32%     12.32% |      340743     12.66%     24.99% |      328163     12.20%     37.19% |      337352     12.54%     49.72% |      343619     12.77%     62.50% |      332108     12.34%     74.84% |      342587     12.73%     87.57% |      334349     12.43%    100.00% (Unspecified)
system.caches.L1Cache_Controller.NP.Load::total      2690525                       (Unspecified)
system.caches.L1Cache_Controller.NP.Ifetch |        1800     21.72%     21.72% |         962     11.61%     33.33% |         927     11.19%     44.52% |         945     11.40%     55.93% |         944     11.39%     67.32% |         952     11.49%     78.81% |         952     11.49%     90.30% |         804      9.70%    100.00% (Unspecified)
system.caches.L1Cache_Controller.NP.Ifetch::total         8286                       (Unspecified)
system.caches.L1Cache_Controller.NP.Store |      368786     12.61%     12.61% |      362554     12.40%     25.01% |      366468     12.53%     37.54% |      365451     12.50%     50.04% |      363925     12.45%     62.49% |      365464     12.50%     74.98% |      366304     12.53%     87.51% |      365186     12.49%    100.00% (Unspecified)
system.caches.L1Cache_Controller.NP.Store::total      2924138                       (Unspecified)
system.caches.L1Cache_Controller.NP.Inv  |        1172     12.77%     12.77% |        1117     12.17%     24.95% |        1132     12.34%     37.29% |        1148     12.51%     49.80% |        1137     12.39%     62.19% |        1178     12.84%     75.03% |        1149     12.52%     87.55% |        1142     12.45%    100.00% (Unspecified)
system.caches.L1Cache_Controller.NP.Inv::total         9175                       (Unspecified)
system.caches.L1Cache_Controller.I.Load  |           0      0.00%      0.00% |         161     37.27%     37.27% |          99     22.92%     60.19% |          47     10.88%     71.06% |          40      9.26%     80.32% |          20      4.63%     84.95% |          32      7.41%     92.36% |          33      7.64%    100.00% (Unspecified)
system.caches.L1Cache_Controller.I.Load::total          432                       (Unspecified)
system.caches.L1Cache_Controller.I.Ifetch |        4848     14.30%     14.30% |        4114     12.14%     26.44% |        4155     12.26%     38.69% |        4147     12.23%     50.93% |        4132     12.19%     63.12% |        4156     12.26%     75.38% |        4161     12.27%     87.65% |        4186     12.35%    100.00% (Unspecified)
system.caches.L1Cache_Controller.I.Ifetch::total        33899                       (Unspecified)
system.caches.L1Cache_Controller.I.Store |           0      0.00%      0.00% |           6     13.95%     13.95% |           6     13.95%     27.91% |           1      2.33%     30.23% |          10     23.26%     53.49% |          10     23.26%     76.74% |           3      6.98%     83.72% |           7     16.28%    100.00% (Unspecified)
system.caches.L1Cache_Controller.I.Store::total           43                       (Unspecified)
system.caches.L1Cache_Controller.I.L1_Replacement |        1512      5.32%      5.32% |        2252      7.93%     13.25% |        5256     18.50%     31.75% |        3132     11.03%     42.78% |        4395     15.47%     58.25% |        6280     22.11%     80.35% |        2811      9.90%     90.25% |        2770      9.75%    100.00% (Unspecified)
system.caches.L1Cache_Controller.I.L1_Replacement::total        28408                       (Unspecified)
system.caches.L1Cache_Controller.S.Load  |       13942      9.44%      9.44% |       30767     20.84%     30.29% |       26279     17.80%     48.09% |       18258     12.37%     60.46% |       15040     10.19%     70.64% |       14096      9.55%     80.19% |       14847     10.06%     90.25% |       14391      9.75%    100.00% (Unspecified)
system.caches.L1Cache_Controller.S.Load::total       147620                       (Unspecified)
system.caches.L1Cache_Controller.S.Ifetch |     1053760     13.64%     13.64% |      883516     11.44%     25.08% |     1059850     13.72%     38.79% |      954673     12.36%     51.15% |      872499     11.29%     62.45% |     1008237     13.05%     75.50% |      911981     11.80%     87.30% |      981114     12.70%    100.00% (Unspecified)
system.caches.L1Cache_Controller.S.Ifetch::total      7725630                       (Unspecified)
system.caches.L1Cache_Controller.S.Store |         177    100.00%    100.00% |           0      0.00%    100.00% |           0      0.00%    100.00% |           0      0.00%    100.00% |           0      0.00%    100.00% |           0      0.00%    100.00% |           0      0.00%    100.00% |           0      0.00%    100.00% (Unspecified)
system.caches.L1Cache_Controller.S.Store::total          177                       (Unspecified)
system.caches.L1Cache_Controller.S.Inv   |        5176     14.30%     14.30% |        4503     12.44%     26.74% |        4469     12.34%     39.08% |        4425     12.22%     51.30% |        4392     12.13%     63.44% |        4402     12.16%     75.60% |        4419     12.21%     87.80% |        4416     12.20%    100.00% (Unspecified)
system.caches.L1Cache_Controller.S.Inv::total        36202                       (Unspecified)
system.caches.L1Cache_Controller.S.L1_Replacement |        4856     14.24%     14.24% |        4184     12.27%     26.51% |        4177     12.25%     38.76% |        4171     12.23%     51.00% |        4163     12.21%     63.21% |        4266     12.51%     75.72% |        4198     12.31%     88.03% |        4081     11.97%    100.00% (Unspecified)
system.caches.L1Cache_Controller.S.L1_Replacement::total        34096                       (Unspecified)
system.caches.L1Cache_Controller.E.Load  |      448758     13.29%     13.29% |      397378     11.77%     25.05% |      436913     12.94%     37.99% |      426596     12.63%     50.62% |      391653     11.60%     62.22% |      427556     12.66%     74.87% |      420175     12.44%     87.31% |      428431     12.69%    100.00% (Unspecified)
system.caches.L1Cache_Controller.E.Load::total      3377460                       (Unspecified)
system.caches.L1Cache_Controller.E.Store |         820     17.85%     17.85% |         525     11.43%     29.28% |         533     11.60%     40.88% |         534     11.62%     52.50% |         543     11.82%     64.32% |         548     11.93%     76.25% |         547     11.91%     88.16% |         544     11.84%    100.00% (Unspecified)
system.caches.L1Cache_Controller.E.Store::total         4594                       (Unspecified)
system.caches.L1Cache_Controller.E.Inv   |         235      2.28%      2.28% |        1013      9.81%     12.09% |        1268     12.28%     24.37% |        1680     16.27%     40.64% |        1678     16.25%     56.90% |        1381     13.38%     70.27% |        1606     15.56%     85.83% |        1463     14.17%    100.00% (Unspecified)
system.caches.L1Cache_Controller.E.Inv::total        10324                       (Unspecified)
system.caches.L1Cache_Controller.E.L1_Replacement |      323121     12.24%     12.24% |      335087     12.70%     24.94% |      322312     12.21%     37.15% |      331038     12.54%     49.69% |      337280     12.78%     62.47% |      326054     12.35%     74.82% |      336396     12.75%     87.57% |      328122     12.43%    100.00% (Unspecified)
system.caches.L1Cache_Controller.E.L1_Replacement::total      2639410                       (Unspecified)
system.caches.L1Cache_Controller.E.Fwd_GETX |           0      0.00%      0.00% |           2    100.00%    100.00% |           0      0.00%    100.00% |           0      0.00%    100.00% |           0      0.00%    100.00% |           0      0.00%    100.00% |           0      0.00%    100.00% |           0      0.00%    100.00% (Unspecified)
system.caches.L1Cache_Controller.E.Fwd_GETX::total            2                       (Unspecified)
system.caches.L1Cache_Controller.E.Fwd_GETS |         318     50.56%     50.56% |         253     40.22%     90.78% |          16      2.54%     93.32% |          15      2.38%     95.71% |           4      0.64%     96.34% |           6      0.95%     97.30% |           2      0.32%     97.62% |          15      2.38%    100.00% (Unspecified)
system.caches.L1Cache_Controller.E.Fwd_GETS::total          629                       (Unspecified)
system.caches.L1Cache_Controller.M.Load  |       21206     21.43%     21.43% |       11259     11.38%     32.81% |       11442     11.56%     44.38% |       10933     11.05%     55.43% |       10737     10.85%     66.28% |       10666     10.78%     77.06% |       11166     11.29%     88.34% |       11535     11.66%    100.00% (Unspecified)
system.caches.L1Cache_Controller.M.Load::total        98944                       (Unspecified)
system.caches.L1Cache_Controller.M.Store |     2577076     12.63%     12.63% |     2528593     12.40%     25.03% |     2555700     12.53%     37.56% |     2548809     12.49%     50.05% |     2538233     12.44%     62.50% |     2548834     12.49%     74.99% |     2554793     12.52%     87.51% |     2546884     12.49%    100.00% (Unspecified)
system.caches.L1Cache_Controller.M.Store::total     20398922                       (Unspecified)
system.caches.L1Cache_Controller.M.Inv   |        1023      6.10%      6.10% |        1082      6.45%     12.54% |        3834     22.85%     35.39% |        1290      7.69%     43.08% |        2572     15.33%     58.40% |        4751     28.31%     86.71% |        1047      6.24%     92.95% |        1183      7.05%    100.00% (Unspecified)
system.caches.L1Cache_Controller.M.Inv::total        16782                       (Unspecified)
system.caches.L1Cache_Controller.M.L1_Replacement |      372499     12.75%     12.75% |      362672     12.42%     25.17% |      363766     12.46%     37.63% |      365334     12.51%     50.14% |      362598     12.42%     62.55% |      361857     12.39%     74.95% |      366391     12.55%     87.49% |      365306     12.51%    100.00% (Unspecified)
system.caches.L1Cache_Controller.M.L1_Replacement::total      2920423                       (Unspecified)
system.caches.L1Cache_Controller.M.Fwd_GETS |         332    100.00%    100.00% |           0      0.00%    100.00% |           0      0.00%    100.00% |           0      0.00%    100.00% |           0      0.00%    100.00% |           0      0.00%    100.00% |           0      0.00%    100.00% |           0      0.00%    100.00% (Unspecified)
system.caches.L1Cache_Controller.M.Fwd_GETS::total          332                       (Unspecified)
system.caches.L1Cache_Controller.IS.Inv  |           0      0.00%      0.00% |           6     21.43%     21.43% |          11     39.29%     60.71% |           5     17.86%     78.57% |           2      7.14%     85.71% |           0      0.00%     85.71% |           2      7.14%     92.86% |           2      7.14%    100.00% (Unspecified)
system.caches.L1Cache_Controller.IS.Inv::total           28                       (Unspecified)
system.caches.L1Cache_Controller.IS.L1_Replacement |           0      0.00%      0.00% |           1    100.00%    100.00% |           0      0.00%    100.00% |           0      0.00%    100.00% |           0      0.00%    100.00% |           0      0.00%    100.00% |           0      0.00%    100.00% |           0      0.00%    100.00% (Unspecified)
system.caches.L1Cache_Controller.IS.L1_Replacement::total            1                       (Unspecified)
system.caches.L1Cache_Controller.IS.Data_Exclusive |      328493     12.33%     12.33% |      337569     12.67%     25.01% |      324728     12.19%     37.20% |      333933     12.54%     49.73% |      340209     12.77%     62.51% |      328601     12.34%     74.84% |      339140     12.73%     87.58% |      330913     12.42%    100.00% (Unspecified)
system.caches.L1Cache_Controller.IS.Data_Exclusive::total      2663586                       (Unspecified)
system.caches.L1Cache_Controller.IS.DataS_fromL1 |          53      5.52%      5.52% |         509     52.97%     58.48% |         284     29.55%     88.03% |          49      5.10%     93.13% |          20      2.08%     95.21% |          20      2.08%     97.29% |          12      1.25%     98.54% |          14      1.46%    100.00% (Unspecified)
system.caches.L1Cache_Controller.IS.DataS_fromL1::total          961                       (Unspecified)
system.caches.L1Cache_Controller.IS.Data_all_Acks |        9705     14.16%     14.16% |        7895     11.52%     25.67% |        8319     12.13%     37.81% |        8504     12.40%     50.21% |        8502     12.40%     62.61% |        8615     12.57%     75.18% |        8576     12.51%     87.69% |        8441     12.31%    100.00% (Unspecified)
system.caches.L1Cache_Controller.IS.Data_all_Acks::total        68557                       (Unspecified)
system.caches.L1Cache_Controller.IM.Data |         103    100.00%    100.00% |           0      0.00%    100.00% |           0      0.00%    100.00% |           0      0.00%    100.00% |           0      0.00%    100.00% |           0      0.00%    100.00% |           0      0.00%    100.00% |           0      0.00%    100.00% (Unspecified)
system.caches.L1Cache_Controller.IM.Data::total          103                       (Unspecified)
system.caches.L1Cache_Controller.IM.Data_all_Acks |      368682     12.61%     12.61% |      362559     12.40%     25.01% |      366473     12.53%     37.54% |      365451     12.50%     50.04% |      363934     12.45%     62.48% |      365474     12.50%     74.98% |      366306     12.53%     87.51% |      365192     12.49%    100.00% (Unspecified)
system.caches.L1Cache_Controller.IM.Data_all_Acks::total      2924071                       (Unspecified)
system.caches.L1Cache_Controller.SM.Ack  |        1065    100.00%    100.00% |           0      0.00%    100.00% |           0      0.00%    100.00% |           0      0.00%    100.00% |           0      0.00%    100.00% |           0      0.00%    100.00% |           0      0.00%    100.00% |           0      0.00%    100.00% (Unspecified)
system.caches.L1Cache_Controller.SM.Ack::total         1065                       (Unspecified)
system.caches.L1Cache_Controller.SM.Ack_all |         280    100.00%    100.00% |           0      0.00%    100.00% |           0      0.00%    100.00% |           0      0.00%    100.00% |           0      0.00%    100.00% |           0      0.00%    100.00% |           0      0.00%    100.00% |           0      0.00%    100.00% (Unspecified)
system.caches.L1Cache_Controller.SM.Ack_all::total          280                       (Unspecified)
system.caches.L1Cache_Controller.IS_I.Data_all_Acks |           0      0.00%      0.00% |           6     21.43%     21.43% |          11     39.29%     60.71% |           5     17.86%     78.57% |           2      7.14%     85.71% |           0      0.00%     85.71% |           2      7.14%     92.86% |           2      7.14%    100.00% (Unspecified)
system.caches.L1Cache_Controller.IS_I.Data_all_Acks::total           28                       (Unspecified)
system.caches.L1Cache_Controller.M_I.Inv |           0      0.00%      0.00% |           0      0.00%      0.00% |           0      0.00%      0.00% |           0      0.00%      0.00% |           0      0.00%      0.00% |           1     50.00%     50.00% |           1     50.00%    100.00% |           0      0.00%    100.00% (Unspecified)
system.caches.L1Cache_Controller.M_I.Inv::total            2                       (Unspecified)
system.caches.L1Cache_Controller.M_I.WB_Ack |      695620     12.51%     12.51% |      697759     12.55%     25.06% |      686078     12.34%     37.40% |      696372     12.53%     49.93% |      699878     12.59%     62.51% |      687910     12.37%     74.89% |      702786     12.64%     87.53% |      693428     12.47%    100.00% (Unspecified)
system.caches.L1Cache_Controller.M_I.WB_Ack::total      5559831                       (Unspecified)
system.caches.L1Cache_Controller.SINK_WB_ACK.WB_Ack |           0      0.00%      0.00% |           0      0.00%      0.00% |           0      0.00%      0.00% |           0      0.00%      0.00% |           0      0.00%      0.00% |           1     50.00%     50.00% |           1     50.00%    100.00% |           0      0.00%    100.00% (Unspecified)
system.caches.L1Cache_Controller.SINK_WB_ACK.WB_Ack::total            2                       (Unspecified)
system.caches.Directory_Controller.Fetch |        6143      0.11%      0.11% |     5576704     99.89%    100.00% (Unspecified)
system.caches.Directory_Controller.Fetch::total      5582847                       (Unspecified)
system.caches.Directory_Controller.Data  |         273      0.01%      0.01% |     2961682     99.99%    100.00% (Unspecified)
system.caches.Directory_Controller.Data::total      2961955                       (Unspecified)
system.caches.Directory_Controller.Memory_Data |        6143      0.11%      0.11% |     5576689     99.89%    100.00% (Unspecified)
system.caches.Directory_Controller.Memory_Data::total      5582832                       (Unspecified)
system.caches.Directory_Controller.Memory_Ack |         273      0.01%      0.01% |     2961681     99.99%    100.00% (Unspecified)
system.caches.Directory_Controller.Memory_Ack::total      2961954                       (Unspecified)
system.caches.Directory_Controller.CleanReplacement |        5888      0.22%      0.22% |     2615004     99.78%    100.00% (Unspecified)
system.caches.Directory_Controller.CleanReplacement::total      2620892                       (Unspecified)
system.caches.Directory_Controller.I.Fetch |        6143      0.11%      0.11% |     5576704     99.89%    100.00% (Unspecified)
system.caches.Directory_Controller.I.Fetch::total      5582847                       (Unspecified)
system.caches.Directory_Controller.M.Data |         273      0.01%      0.01% |     2961682     99.99%    100.00% (Unspecified)
system.caches.Directory_Controller.M.Data::total      2961955                       (Unspecified)
system.caches.Directory_Controller.M.CleanReplacement |        5888      0.22%      0.22% |     2615004     99.78%    100.00% (Unspecified)
system.caches.Directory_Controller.M.CleanReplacement::total      2620892                       (Unspecified)
system.caches.Directory_Controller.IM.Memory_Data |        6143      0.11%      0.11% |     5576689     99.89%    100.00% (Unspecified)
system.caches.Directory_Controller.IM.Memory_Data::total      5582832                       (Unspecified)
system.caches.Directory_Controller.MI.Memory_Ack |         273      0.01%      0.01% |     2961681     99.99%    100.00% (Unspecified)
system.caches.Directory_Controller.MI.Memory_Ack::total      2961954                       (Unspecified)
system.caches.L2Cache_Controller.L1_GET_INSTR |        5669     13.43%     13.43% |        6062     14.36%     27.79% |        4531     10.73%     38.52% |        3543      8.39%     46.92% |        5033     11.92%     58.84% |        5818     13.78%     72.62% |        5697     13.50%     86.12% |        5860     13.88%    100.00% (Unspecified)
system.caches.L2Cache_Controller.L1_GET_INSTR::total        42213                       (Unspecified)
system.caches.L2Cache_Controller.L1_GETS |      339248     12.61%     12.61% |      337155     12.53%     25.13% |      336344     12.50%     37.63% |      335704     12.47%     50.10% |      335507     12.47%     62.57% |      335288     12.46%     75.03% |      335057     12.45%     87.48% |      337015     12.52%    100.00% (Unspecified)
system.caches.L2Cache_Controller.L1_GETS::total      2691318                       (Unspecified)
system.caches.L2Cache_Controller.L1_GETX |      365913     12.51%     12.51% |      365413     12.50%     25.01% |      364456     12.46%     37.47% |      365222     12.49%     49.96% |      365434     12.50%     62.46% |      366331     12.53%     74.99% |      365604     12.50%     87.49% |      365833     12.51%    100.00% (Unspecified)
system.caches.L2Cache_Controller.L1_GETX::total      2924206                       (Unspecified)
system.caches.L2Cache_Controller.L1_UPGRADE |           2      0.88%      0.88% |          39     17.26%     18.14% |           0      0.00%     18.14% |           0      0.00%     18.14% |           0      0.00%     18.14% |           0      0.00%     18.14% |         185     81.86%    100.00% |           0      0.00%    100.00% (Unspecified)
system.caches.L2Cache_Controller.L1_UPGRADE::total          226                       (Unspecified)
system.caches.L2Cache_Controller.L1_PUTX |      695453     12.51%     12.51% |      695260     12.51%     25.01% |      693289     12.47%     37.48% |      694391     12.49%     49.97% |      694775     12.50%     62.47% |      696248     12.52%     74.99% |      694978     12.50%     87.49% |      695437     12.51%    100.00% (Unspecified)
system.caches.L2Cache_Controller.L1_PUTX::total      5559831                       (Unspecified)
system.caches.L2Cache_Controller.L1_PUTX_old |           0      0.00%      0.00% |           0      0.00%      0.00% |           2     66.67%     66.67% |           0      0.00%     66.67% |           0      0.00%     66.67% |           0      0.00%     66.67% |           0      0.00%     66.67% |           1     33.33%    100.00% (Unspecified)
system.caches.L2Cache_Controller.L1_PUTX_old::total            3                       (Unspecified)
system.caches.L2Cache_Controller.L2_Replacement |      368546     12.51%     12.51% |      367946     12.49%     25.01% |      367188     12.47%     37.47% |      368050     12.50%     49.97% |      367757     12.49%     62.46% |      368954     12.53%     74.98% |      368160     12.50%     87.48% |      368647     12.52%    100.00% (Unspecified)
system.caches.L2Cache_Controller.L2_Replacement::total      2945248                       (Unspecified)
system.caches.L2Cache_Controller.L2_Replacement_clean |      329959     12.51%     12.51% |      330246     12.52%     25.03% |      329297     12.48%     37.52% |      329345     12.49%     50.00% |      329865     12.51%     62.51% |      329656     12.50%     75.01% |      329653     12.50%     87.50% |      329579     12.50%    100.00% (Unspecified)
system.caches.L2Cache_Controller.L2_Replacement_clean::total      2637600                       (Unspecified)
system.caches.L2Cache_Controller.Mem_Data |      698504     12.51%     12.51% |      698187     12.51%     25.02% |      696483     12.48%     37.49% |      697394     12.49%     49.98% |      697620     12.50%     62.48% |      698607     12.51%     74.99% |      697811     12.50%     87.49% |      698225     12.51%    100.00% (Unspecified)
system.caches.L2Cache_Controller.Mem_Data::total      5582831                       (Unspecified)
system.caches.L2Cache_Controller.Mem_Ack |      698505     12.51%     12.51% |      698191     12.51%     25.02% |      696485     12.48%     37.49% |      697395     12.49%     49.98% |      697622     12.50%     62.48% |      698609     12.51%     74.99% |      697812     12.50%     87.49% |      698226     12.51%    100.00% (Unspecified)
system.caches.L2Cache_Controller.Mem_Ack::total      5582845                       (Unspecified)
system.caches.L2Cache_Controller.WB_Data |        2208     12.90%     12.90% |        2175     12.71%     25.61% |        2019     11.80%     37.41% |        2082     12.16%     49.57% |        2086     12.19%     61.76% |        2139     12.50%     74.26% |        2272     13.27%     87.53% |        2134     12.47%    100.00% (Unspecified)
system.caches.L2Cache_Controller.WB_Data::total        17115                       (Unspecified)
system.caches.L2Cache_Controller.WB_Data_clean |         124     19.68%     19.68% |          69     10.95%     30.63% |          94     14.92%     45.56% |          65     10.32%     55.87% |          74     11.75%     67.62% |          45      7.14%     74.76% |          48      7.62%     82.38% |         111     17.62%    100.00% (Unspecified)
system.caches.L2Cache_Controller.WB_Data_clean::total          630                       (Unspecified)
system.caches.L2Cache_Controller.Ack     |        5439     14.41%     14.41% |        5200     13.78%     28.19% |        4605     12.20%     40.39% |        3739      9.91%     50.30% |        4868     12.90%     63.20% |        4807     12.74%     75.94% |        4465     11.83%     87.77% |        4616     12.23%    100.00% (Unspecified)
system.caches.L2Cache_Controller.Ack::total        37739                       (Unspecified)
system.caches.L2Cache_Controller.Ack_all |        2208     13.13%     13.13% |        2177     12.94%     26.07% |        2036     12.10%     38.17% |        1926     11.45%     49.62% |        2125     12.63%     62.25% |        2093     12.44%     74.69% |        2079     12.36%     87.05% |        2178     12.95%    100.00% (Unspecified)
system.caches.L2Cache_Controller.Ack_all::total        16822                       (Unspecified)
system.caches.L2Cache_Controller.Unblock |         223     23.20%     23.20% |         118     12.28%     35.48% |          94      9.78%     45.27% |          65      6.76%     52.03% |          74      7.70%     59.73% |          45      4.68%     64.41% |         232     24.14%     88.55% |         110     11.45%    100.00% (Unspecified)
system.caches.L2Cache_Controller.Unblock::total          961                       (Unspecified)
system.caches.L2Cache_Controller.Exclusive_Unblock |      699066     12.51%     12.51% |      698763     12.50%     25.02% |      696621     12.47%     37.48% |      697810     12.49%     49.97% |      698251     12.50%     62.47% |      699748     12.52%     74.99% |      698653     12.50%     87.49% |      699025     12.51%    100.00% (Unspecified)
system.caches.L2Cache_Controller.Exclusive_Unblock::total      5587937                       (Unspecified)
system.caches.L2Cache_Controller.NP.L1_GET_INSTR |         711     13.07%     13.07% |         772     14.19%     27.26% |         655     12.04%     39.29% |         538      9.89%     49.18% |         709     13.03%     62.21% |         699     12.85%     75.06% |         663     12.19%     87.24% |         694     12.76%    100.00% (Unspecified)
system.caches.L2Cache_Controller.NP.L1_GET_INSTR::total         5441                       (Unspecified)
system.caches.L2Cache_Controller.NP.L1_GETS |      332347     12.51%     12.51% |      332287     12.51%     25.02% |      331511     12.48%     37.50% |      331928     12.49%     49.99% |      331946     12.49%     62.48% |      332349     12.51%     74.99% |      332087     12.50%     87.49% |      332238     12.51%    100.00% (Unspecified)
system.caches.L2Cache_Controller.NP.L1_GETS::total      2656693                       (Unspecified)
system.caches.L2Cache_Controller.NP.L1_GETX |      365447     12.51%     12.51% |      365133     12.50%     25.01% |      364319     12.47%     37.49% |      364929     12.49%     49.98% |      364967     12.50%     62.48% |      365562     12.52%     74.99% |      365063     12.50%     87.49% |      365294     12.51%    100.00% (Unspecified)
system.caches.L2Cache_Controller.NP.L1_GETX::total      2920714                       (Unspecified)
system.caches.L2Cache_Controller.NP.L1_PUTX_old |           0      0.00%      0.00% |           0      0.00%      0.00% |           1    100.00%    100.00% |           0      0.00%    100.00% |           0      0.00%    100.00% |           0      0.00%    100.00% |           0      0.00%    100.00% |           0      0.00%    100.00% (Unspecified)
system.caches.L2Cache_Controller.NP.L1_PUTX_old::total            1                       (Unspecified)
system.caches.L2Cache_Controller.SS.L1_GET_INSTR |        4205     13.91%     13.91% |        4363     14.43%     28.34% |        3136     10.37%     38.71% |        2343      7.75%     46.46% |        3582     11.85%     58.31% |        4103     13.57%     71.88% |        4014     13.28%     85.16% |        4487     14.84%    100.00% (Unspecified)
system.caches.L2Cache_Controller.SS.L1_GET_INSTR::total        30233                       (Unspecified)
system.caches.L2Cache_Controller.SS.L1_GETS |        5651     22.31%     22.31% |        3460     13.66%     35.97% |        3933     15.53%     51.50% |        2910     11.49%     62.99% |        2536     10.01%     73.01% |        1643      6.49%     79.50% |        1578      6.23%     85.73% |        3615     14.27%    100.00% (Unspecified)
system.caches.L2Cache_Controller.SS.L1_GETS::total        25326                       (Unspecified)
system.caches.L2Cache_Controller.SS.L1_GETX |          66     64.08%     64.08% |           0      0.00%     64.08% |           0      0.00%     64.08% |           0      0.00%     64.08% |           0      0.00%     64.08% |           0      0.00%     64.08% |          37     35.92%    100.00% |           0      0.00%    100.00% (Unspecified)
system.caches.L2Cache_Controller.SS.L1_GETX::total          103                       (Unspecified)
system.caches.L2Cache_Controller.SS.L1_UPGRADE |           2      1.13%      1.13% |          39     22.03%     23.16% |           0      0.00%     23.16% |           0      0.00%     23.16% |           0      0.00%     23.16% |           0      0.00%     23.16% |         136     76.84%    100.00% |           0      0.00%    100.00% (Unspecified)
system.caches.L2Cache_Controller.SS.L1_UPGRADE::total          177                       (Unspecified)
system.caches.L2Cache_Controller.SS.L2_Replacement |          33     55.93%     55.93% |          13     22.03%     77.97% |           0      0.00%     77.97% |           0      0.00%     77.97% |           0      0.00%     77.97% |           0      0.00%     77.97% |          13     22.03%    100.00% |           0      0.00%    100.00% (Unspecified)
system.caches.L2Cache_Controller.SS.L2_Replacement::total           59                       (Unspecified)
system.caches.L2Cache_Controller.SS.L2_Replacement_clean |         896     13.92%     13.92% |         896     13.92%     27.83% |         808     12.55%     40.38% |         656     10.19%     50.57% |         817     12.69%     63.26% |         793     12.32%     75.57% |         727     11.29%     86.86% |         846     13.14%    100.00% (Unspecified)
system.caches.L2Cache_Controller.SS.L2_Replacement_clean::total         6439                       (Unspecified)
system.caches.L2Cache_Controller.M.L1_GET_INSTR |           1     10.00%     10.00% |           3     30.00%     40.00% |           1     10.00%     50.00% |           0      0.00%     50.00% |           0      0.00%     50.00% |           1     10.00%     60.00% |           2     20.00%     80.00% |           2     20.00%    100.00% (Unspecified)
system.caches.L2Cache_Controller.M.L1_GET_INSTR::total           10                       (Unspecified)
system.caches.L2Cache_Controller.M.L1_GETS |         875     12.08%     12.08% |        1088     15.02%     27.10% |         712      9.83%     36.93% |         715      9.87%     46.80% |         902     12.45%     59.26% |        1118     15.44%     74.69% |         841     11.61%     86.30% |         992     13.70%    100.00% (Unspecified)
system.caches.L2Cache_Controller.M.L1_GETS::total         7243                       (Unspecified)
system.caches.L2Cache_Controller.M.L1_GETX |         389     11.57%     11.57% |         273      8.12%     19.69% |         137      4.07%     23.77% |         289      8.60%     32.36% |         467     13.89%     46.25% |         765     22.75%     69.01% |         503     14.96%     83.97% |         539     16.03%    100.00% (Unspecified)
system.caches.L2Cache_Controller.M.L1_GETX::total         3362                       (Unspecified)
system.caches.L2Cache_Controller.M.L2_Replacement |      368500     12.51%     12.51% |      367921     12.49%     25.00% |      367186     12.47%     37.47% |      368043     12.50%     49.97% |      367751     12.49%     62.46% |      368938     12.53%     74.98% |      368137     12.50%     87.48% |      368633     12.52%    100.00% (Unspecified)
system.caches.L2Cache_Controller.M.L2_Replacement::total      2945109                       (Unspecified)
system.caches.L2Cache_Controller.M.L2_Replacement_clean |      325688     12.51%     12.51% |      325968     12.52%     25.02% |      325244     12.49%     37.51% |      325344     12.49%     50.01% |      325660     12.51%     62.51% |      325440     12.50%     75.01% |      325509     12.50%     87.51% |      325280     12.49%    100.00% (Unspecified)
system.caches.L2Cache_Controller.M.L2_Replacement_clean::total      2604133                       (Unspecified)
system.caches.L2Cache_Controller.MT.L1_GETS |         223     23.20%     23.20% |         118     12.28%     35.48% |          94      9.78%     45.27% |          65      6.76%     52.03% |          74      7.70%     59.73% |          45      4.68%     64.41% |         232     24.14%     88.55% |         110     11.45%    100.00% (Unspecified)
system.caches.L2Cache_Controller.MT.L1_GETS::total          961                       (Unspecified)
system.caches.L2Cache_Controller.MT.L1_GETX |           1     50.00%     50.00% |           0      0.00%     50.00% |           0      0.00%     50.00% |           0      0.00%     50.00% |           0      0.00%     50.00% |           0      0.00%     50.00% |           1     50.00%    100.00% |           0      0.00%    100.00% (Unspecified)
system.caches.L2Cache_Controller.MT.L1_GETX::total            2                       (Unspecified)
system.caches.L2Cache_Controller.MT.L1_PUTX |      695453     12.51%     12.51% |      695260     12.51%     25.01% |      693289     12.47%     37.48% |      694391     12.49%     49.97% |      694775     12.50%     62.47% |      696248     12.52%     74.99% |      694978     12.50%     87.49% |      695437     12.51%    100.00% (Unspecified)
system.caches.L2Cache_Controller.MT.L1_PUTX::total      5559831                       (Unspecified)
system.caches.L2Cache_Controller.MT.L2_Replacement |          13     16.25%     16.25% |          12     15.00%     31.25% |           2      2.50%     33.75% |           7      8.75%     42.50% |           6      7.50%     50.00% |          16     20.00%     70.00% |          10     12.50%     82.50% |          14     17.50%    100.00% (Unspecified)
system.caches.L2Cache_Controller.MT.L2_Replacement::total           80                       (Unspecified)
system.caches.L2Cache_Controller.MT.L2_Replacement_clean |        3375     12.49%     12.49% |        3382     12.51%     25.00% |        3245     12.01%     37.01% |        3345     12.38%     49.38% |        3388     12.54%     61.92% |        3423     12.66%     74.58% |        3417     12.64%     87.22% |        3453     12.78%    100.00% (Unspecified)
system.caches.L2Cache_Controller.MT.L2_Replacement_clean::total        27028                       (Unspecified)
system.caches.L2Cache_Controller.M_I.L1_GET_INSTR |           1      3.57%      3.57% |          10     35.71%     39.29% |           0      0.00%     39.29% |           0      0.00%     39.29% |           0      0.00%     39.29% |           4     14.29%     53.57% |           9     32.14%     85.71% |           4     14.29%    100.00% (Unspecified)
system.caches.L2Cache_Controller.M_I.L1_GET_INSTR::total           28                       (Unspecified)
system.caches.L2Cache_Controller.M_I.L1_GETS |           5     26.32%     26.32% |           4     21.05%     47.37% |           4     21.05%     68.42% |           1      5.26%     73.68% |           3     15.79%     89.47% |           0      0.00%     89.47% |           2     10.53%    100.00% |           0      0.00%    100.00% (Unspecified)
system.caches.L2Cache_Controller.M_I.L1_GETS::total           19                       (Unspecified)
system.caches.L2Cache_Controller.M_I.L1_GETX |          10     40.00%     40.00% |           7     28.00%     68.00% |           0      0.00%     68.00% |           4     16.00%     84.00% |           0      0.00%     84.00% |           4     16.00%    100.00% |           0      0.00%    100.00% |           0      0.00%    100.00% (Unspecified)
system.caches.L2Cache_Controller.M_I.L1_GETX::total           25                       (Unspecified)
system.caches.L2Cache_Controller.M_I.L1_PUTX_old |           0      0.00%      0.00% |           0      0.00%      0.00% |           0      0.00%      0.00% |           0      0.00%      0.00% |           0      0.00%      0.00% |           0      0.00%      0.00% |           0      0.00%      0.00% |           1    100.00%    100.00% (Unspecified)
system.caches.L2Cache_Controller.M_I.L1_PUTX_old::total            1                       (Unspecified)
system.caches.L2Cache_Controller.M_I.Mem_Ack |      698505     12.51%     12.51% |      698191     12.51%     25.02% |      696485     12.48%     37.49% |      697395     12.49%     49.98% |      697622     12.50%     62.48% |      698609     12.51%     74.99% |      697812     12.50%     87.49% |      698226     12.51%    100.00% (Unspecified)
system.caches.L2Cache_Controller.M_I.Mem_Ack::total      5582845                       (Unspecified)
system.caches.L2Cache_Controller.MT_I.WB_Data |          13     17.33%     17.33% |          10     13.33%     30.67% |           1      1.33%     32.00% |           6      8.00%     40.00% |           5      6.67%     46.67% |          16     21.33%     68.00% |          10     13.33%     81.33% |          14     18.67%    100.00% (Unspecified)
system.caches.L2Cache_Controller.MT_I.WB_Data::total           75                       (Unspecified)
system.caches.L2Cache_Controller.MT_I.Ack_all |           0      0.00%      0.00% |           2     40.00%     40.00% |           1     20.00%     60.00% |           1     20.00%     80.00% |           1     20.00%    100.00% |           0      0.00%    100.00% |           0      0.00%    100.00% |           0      0.00%    100.00% (Unspecified)
system.caches.L2Cache_Controller.MT_I.Ack_all::total            5                       (Unspecified)
system.caches.L2Cache_Controller.MCT_I.L1_PUTX_old |           0      0.00%      0.00% |           0      0.00%      0.00% |           1    100.00%    100.00% |           0      0.00%    100.00% |           0      0.00%    100.00% |           0      0.00%    100.00% |           0      0.00%    100.00% |           0      0.00%    100.00% (Unspecified)
system.caches.L2Cache_Controller.MCT_I.L1_PUTX_old::total            1                       (Unspecified)
system.caches.L2Cache_Controller.MCT_I.WB_Data |        2096     12.54%     12.54% |        2116     12.66%     25.21% |        2018     12.08%     37.29% |        2076     12.43%     49.71% |        2081     12.46%     62.17% |        2123     12.71%     74.87% |        2078     12.44%     87.31% |        2120     12.69%    100.00% (Unspecified)
system.caches.L2Cache_Controller.MCT_I.WB_Data::total        16708                       (Unspecified)
system.caches.L2Cache_Controller.MCT_I.WB_Data_clean |           0      0.00%      0.00% |           0      0.00%      0.00% |           0      0.00%      0.00% |           0      0.00%      0.00% |           0      0.00%      0.00% |           0      0.00%      0.00% |           0      0.00%      0.00% |           1    100.00%    100.00% (Unspecified)
system.caches.L2Cache_Controller.MCT_I.WB_Data_clean::total            1                       (Unspecified)
system.caches.L2Cache_Controller.MCT_I.Ack_all |        1279     12.39%     12.39% |        1266     12.27%     24.66% |        1227     11.89%     36.55% |        1269     12.30%     48.85% |        1307     12.67%     61.52% |        1300     12.60%     74.12% |        1339     12.98%     87.09% |        1332     12.91%    100.00% (Unspecified)
system.caches.L2Cache_Controller.MCT_I.Ack_all::total        10319                       (Unspecified)
system.caches.L2Cache_Controller.I_I.Ack |        5212     13.96%     13.96% |        5113     13.70%     27.66% |        4605     12.33%     39.99% |        3739     10.01%     50.01% |        4868     13.04%     63.04% |        4807     12.88%     75.92% |        4374     11.72%     87.64% |        4616     12.36%    100.00% (Unspecified)
system.caches.L2Cache_Controller.I_I.Ack::total        37334                       (Unspecified)
system.caches.L2Cache_Controller.I_I.Ack_all |         896     13.92%     13.92% |         896     13.92%     27.83% |         808     12.55%     40.38% |         656     10.19%     50.57% |         817     12.69%     63.26% |         793     12.32%     75.57% |         727     11.29%     86.86% |         846     13.14%    100.00% (Unspecified)
system.caches.L2Cache_Controller.I_I.Ack_all::total         6439                       (Unspecified)
system.caches.L2Cache_Controller.S_I.Ack |         227     56.05%     56.05% |          87     21.48%     77.53% |           0      0.00%     77.53% |           0      0.00%     77.53% |           0      0.00%     77.53% |           0      0.00%     77.53% |          91     22.47%    100.00% |           0      0.00%    100.00% (Unspecified)
system.caches.L2Cache_Controller.S_I.Ack::total          405                       (Unspecified)
system.caches.L2Cache_Controller.S_I.Ack_all |          33     55.93%     55.93% |          13     22.03%     77.97% |           0      0.00%     77.97% |           0      0.00%     77.97% |           0      0.00%     77.97% |           0      0.00%     77.97% |          13     22.03%    100.00% |           0      0.00%    100.00% (Unspecified)
system.caches.L2Cache_Controller.S_I.Ack_all::total           59                       (Unspecified)
system.caches.L2Cache_Controller.ISS.L1_GETS |          60     17.65%     17.65% |          52     15.29%     32.94% |          56     16.47%     49.41% |          50     14.71%     64.12% |          29      8.53%     72.65% |          43     12.65%     85.29% |          13      3.82%     89.12% |          37     10.88%    100.00% (Unspecified)
system.caches.L2Cache_Controller.ISS.L1_GETS::total          340                       (Unspecified)
system.caches.L2Cache_Controller.ISS.Mem_Data |      332286     12.51%     12.51% |      332233     12.51%     25.02% |      331454     12.48%     37.49% |      331877     12.49%     49.99% |      331915     12.50%     62.48% |      332303     12.51%     74.99% |      332074     12.50%     87.49% |      332201     12.51%    100.00% (Unspecified)
system.caches.L2Cache_Controller.ISS.Mem_Data::total      2656343                       (Unspecified)
system.caches.L2Cache_Controller.IS.L1_GET_INSTR |         751     11.55%     11.55% |         914     14.06%     25.61% |         739     11.37%     36.98% |         662     10.18%     47.16% |         742     11.41%     58.58% |        1011     15.55%     74.13% |        1009     15.52%     89.65% |         673     10.35%    100.00% (Unspecified)
system.caches.L2Cache_Controller.IS.L1_GET_INSTR::total         6501                       (Unspecified)
system.caches.L2Cache_Controller.IS.L1_GETS |          73     18.53%     18.53% |         130     32.99%     51.52% |          34      8.63%     60.15% |          33      8.38%     68.53% |          17      4.31%     72.84% |          76     19.29%     92.13% |          13      3.30%     95.43% |          18      4.57%    100.00% (Unspecified)
system.caches.L2Cache_Controller.IS.L1_GETS::total          394                       (Unspecified)
system.caches.L2Cache_Controller.IS.Mem_Data |         771     13.34%     13.34% |         824     14.25%     27.59% |         711     12.30%     39.89% |         588     10.17%     50.06% |         738     12.77%     62.83% |         742     12.84%     75.66% |         676     11.69%     87.36% |         731     12.64%    100.00% (Unspecified)
system.caches.L2Cache_Controller.IS.Mem_Data::total         5781                       (Unspecified)
system.caches.L2Cache_Controller.IM.Mem_Data |      365447     12.51%     12.51% |      365130     12.50%     25.01% |      364318     12.47%     37.49% |      364929     12.49%     49.98% |      364967     12.50%     62.48% |      365562     12.52%     74.99% |      365061     12.50%     87.49% |      365293     12.51%    100.00% (Unspecified)
system.caches.L2Cache_Controller.IM.Mem_Data::total      2920707                       (Unspecified)
system.caches.L2Cache_Controller.SS_MB.L1_GETS |           1      0.49%      0.49% |           0      0.00%      0.49% |           0      0.00%      0.49% |           0      0.00%      0.49% |           0      0.00%      0.49% |           0      0.00%      0.49% |         203     99.51%    100.00% |           0      0.00%    100.00% (Unspecified)
system.caches.L2Cache_Controller.SS_MB.L1_GETS::total          204                       (Unspecified)
system.caches.L2Cache_Controller.SS_MB.Exclusive_Unblock |          68     24.29%     24.29% |          39     13.93%     38.21% |           0      0.00%     38.21% |           0      0.00%     38.21% |           0      0.00%     38.21% |           0      0.00%     38.21% |         173     61.79%    100.00% |           0      0.00%    100.00% (Unspecified)
system.caches.L2Cache_Controller.SS_MB.Exclusive_Unblock::total          280                       (Unspecified)
system.caches.L2Cache_Controller.MT_MB.L1_GETS |           1     20.00%     20.00% |           0      0.00%     20.00% |           0      0.00%     20.00% |           0      0.00%     20.00% |           0      0.00%     20.00% |           2     40.00%     60.00% |           0      0.00%     60.00% |           2     40.00%    100.00% (Unspecified)
system.caches.L2Cache_Controller.MT_MB.L1_GETS::total            5                       (Unspecified)
system.caches.L2Cache_Controller.MT_MB.Exclusive_Unblock |      698998     12.51%     12.51% |      698724     12.50%     25.01% |      696621     12.47%     37.48% |      697810     12.49%     49.97% |      698251     12.50%     62.47% |      699748     12.52%     74.99% |      698480     12.50%     87.49% |      699025     12.51%    100.00% (Unspecified)
system.caches.L2Cache_Controller.MT_MB.Exclusive_Unblock::total      5587657                       (Unspecified)
system.caches.L2Cache_Controller.MT_IIB.L1_GETS |          12      9.30%      9.30% |          15     11.63%     20.93% |           0      0.00%     20.93% |           2      1.55%     22.48% |           0      0.00%     22.48% |          11      8.53%     31.01% |          86     66.67%     97.67% |           3      2.33%    100.00% (Unspecified)
system.caches.L2Cache_Controller.MT_IIB.L1_GETS::total          129                       (Unspecified)
system.caches.L2Cache_Controller.MT_IIB.WB_Data |          99     29.82%     29.82% |          49     14.76%     44.58% |           0      0.00%     44.58% |           0      0.00%     44.58% |           0      0.00%     44.58% |           0      0.00%     44.58% |         184     55.42%    100.00% |           0      0.00%    100.00% (Unspecified)
system.caches.L2Cache_Controller.MT_IIB.WB_Data::total          332                       (Unspecified)
system.caches.L2Cache_Controller.MT_IIB.WB_Data_clean |         124     19.71%     19.71% |          69     10.97%     30.68% |          94     14.94%     45.63% |          65     10.33%     55.96% |          74     11.76%     67.73% |          45      7.15%     74.88% |          48      7.63%     82.51% |         110     17.49%    100.00% (Unspecified)
system.caches.L2Cache_Controller.MT_IIB.WB_Data_clean::total          629                       (Unspecified)
system.caches.L2Cache_Controller.MT_SB.L1_GETS |           0      0.00%      0.00% |           1     25.00%     25.00% |           0      0.00%     25.00% |           0      0.00%     25.00% |           0      0.00%     25.00% |           1     25.00%     50.00% |           2     50.00%    100.00% |           0      0.00%    100.00% (Unspecified)
system.caches.L2Cache_Controller.MT_SB.L1_GETS::total            4                       (Unspecified)
system.caches.L2Cache_Controller.MT_SB.L1_UPGRADE |           0      0.00%      0.00% |           0      0.00%      0.00% |           0      0.00%      0.00% |           0      0.00%      0.00% |           0      0.00%      0.00% |           0      0.00%      0.00% |          49    100.00%    100.00% |           0      0.00%    100.00% (Unspecified)
system.caches.L2Cache_Controller.MT_SB.L1_UPGRADE::total           49                       (Unspecified)
system.caches.L2Cache_Controller.MT_SB.Unblock |         223     23.20%     23.20% |         118     12.28%     35.48% |          94      9.78%     45.27% |          65      6.76%     52.03% |          74      7.70%     59.73% |          45      4.68%     64.41% |         232     24.14%     88.55% |         110     11.45%    100.00% (Unspecified)
system.caches.L2Cache_Controller.MT_SB.Unblock::total          961                       (Unspecified)
system.caches.RequestType.LD.latency_hist_seqr::bucket_size          512                       (Unspecified)
system.caches.RequestType.LD.latency_hist_seqr::max_bucket         5119                       (Unspecified)
system.caches.RequestType.LD.latency_hist_seqr::samples      6314971                       (Unspecified)
system.caches.RequestType.LD.latency_hist_seqr::mean   256.753210                       (Unspecified)
system.caches.RequestType.LD.latency_hist_seqr::gmean    14.582187                       (Unspecified)
system.caches.RequestType.LD.latency_hist_seqr::stdev   361.130729                       (Unspecified)
system.caches.RequestType.LD.latency_hist_seqr |     4892846     77.48%     77.48% |     1306507     20.69%     98.17% |       70385      1.11%     99.28% |        4773      0.08%     99.36% |       23137      0.37%     99.73% |       16227      0.26%     99.98% |        1035      0.02%    100.00% |          61      0.00%    100.00% |           0      0.00%    100.00% |           0      0.00%    100.00% (Unspecified)
system.caches.RequestType.LD.latency_hist_seqr::total      6314971                       (Unspecified)
system.caches.RequestType.LD.hit_latency_hist_seqr::bucket_size            1                       (Unspecified)
system.caches.RequestType.LD.hit_latency_hist_seqr::max_bucket            9                       (Unspecified)
system.caches.RequestType.LD.hit_latency_hist_seqr::samples      3624024                       (Unspecified)
system.caches.RequestType.LD.hit_latency_hist_seqr::mean     1.000090                       (Unspecified)
system.caches.RequestType.LD.hit_latency_hist_seqr::gmean     1.000063                       (Unspecified)
system.caches.RequestType.LD.hit_latency_hist_seqr::stdev     0.009499                       (Unspecified)
system.caches.RequestType.LD.hit_latency_hist_seqr |           0      0.00%      0.00% |     3623697     99.99%     99.99% |         327      0.01%    100.00% |           0      0.00%    100.00% |           0      0.00%    100.00% |           0      0.00%    100.00% |           0      0.00%    100.00% |           0      0.00%    100.00% |           0      0.00%    100.00% |           0      0.00%    100.00% (Unspecified)
system.caches.RequestType.LD.hit_latency_hist_seqr::total      3624024                       (Unspecified)
system.caches.RequestType.LD.miss_latency_hist_seqr::bucket_size          512                       (Unspecified)
system.caches.RequestType.LD.miss_latency_hist_seqr::max_bucket         5119                       (Unspecified)
system.caches.RequestType.LD.miss_latency_hist_seqr::samples      2690947                       (Unspecified)
system.caches.RequestType.LD.miss_latency_hist_seqr::mean   601.187881                       (Unspecified)
system.caches.RequestType.LD.miss_latency_hist_seqr::gmean   538.468653                       (Unspecified)
system.caches.RequestType.LD.miss_latency_hist_seqr::stdev   315.160947                       (Unspecified)
system.caches.RequestType.LD.miss_latency_hist_seqr |     1268822     47.15%     47.15% |     1306507     48.55%     95.70% |       70385      2.62%     98.32% |        4773      0.18%     98.50% |       23137      0.86%     99.36% |       16227      0.60%     99.96% |        1035      0.04%    100.00% |          61      0.00%    100.00% |           0      0.00%    100.00% |           0      0.00%    100.00% (Unspecified)
system.caches.RequestType.LD.miss_latency_hist_seqr::total      2690947                       (Unspecified)
system.caches.RequestType.ST.latency_hist_seqr::bucket_size          512                       (Unspecified)
system.caches.RequestType.ST.latency_hist_seqr::max_bucket         5119                       (Unspecified)
system.caches.RequestType.ST.latency_hist_seqr::samples     23307654                       (Unspecified)
system.caches.RequestType.ST.latency_hist_seqr::mean    79.978403                       (Unspecified)
system.caches.RequestType.ST.latency_hist_seqr::gmean     2.231120                       (Unspecified)
system.caches.RequestType.ST.latency_hist_seqr::stdev   237.177660                       (Unspecified)
system.caches.RequestType.ST.latency_hist_seqr |    21736484     93.26%     93.26% |     1438633      6.17%     99.43% |       82736      0.35%     99.79% |        3641      0.02%     99.80% |       24925      0.11%     99.91% |       20155      0.09%    100.00% |        1050      0.00%    100.00% |          29      0.00%    100.00% |           1      0.00%    100.00% |           0      0.00%    100.00% (Unspecified)
system.caches.RequestType.ST.latency_hist_seqr::total     23307654                       (Unspecified)
system.caches.RequestType.ST.hit_latency_hist_seqr::bucket_size          512                       (Unspecified)
system.caches.RequestType.ST.hit_latency_hist_seqr::max_bucket         5119                       (Unspecified)
system.caches.RequestType.ST.hit_latency_hist_seqr::samples     20388439                       (Unspecified)
system.caches.RequestType.ST.hit_latency_hist_seqr::mean     1.016215                       (Unspecified)
system.caches.RequestType.ST.hit_latency_hist_seqr::gmean     1.005783                       (Unspecified)
system.caches.RequestType.ST.hit_latency_hist_seqr::stdev     3.101239                       (Unspecified)
system.caches.RequestType.ST.hit_latency_hist_seqr |    20388312    100.00%    100.00% |          66      0.00%    100.00% |          41      0.00%    100.00% |          12      0.00%    100.00% |           6      0.00%    100.00% |           0      0.00%    100.00% |           2      0.00%    100.00% |           0      0.00%    100.00% |           0      0.00%    100.00% |           0      0.00%    100.00% (Unspecified)
system.caches.RequestType.ST.hit_latency_hist_seqr::total     20388439                       (Unspecified)
system.caches.RequestType.ST.miss_latency_hist_seqr::bucket_size          512                       (Unspecified)
system.caches.RequestType.ST.miss_latency_hist_seqr::max_bucket         5119                       (Unspecified)
system.caches.RequestType.ST.miss_latency_hist_seqr::samples      2919215                       (Unspecified)
system.caches.RequestType.ST.miss_latency_hist_seqr::mean   631.467670                       (Unspecified)
system.caches.RequestType.ST.miss_latency_hist_seqr::gmean   582.361906                       (Unspecified)
system.caches.RequestType.ST.miss_latency_hist_seqr::stdev   318.408358                       (Unspecified)
system.caches.RequestType.ST.miss_latency_hist_seqr |     1348172     46.18%     46.18% |     1438567     49.28%     95.46% |       82695      2.83%     98.29% |        3629      0.12%     98.42% |       24919      0.85%     99.27% |       20155      0.69%     99.96% |        1048      0.04%    100.00% |          29      0.00%    100.00% |           1      0.00%    100.00% |           0      0.00%    100.00% (Unspecified)
system.caches.RequestType.ST.miss_latency_hist_seqr::total      2919215                       (Unspecified)
system.caches.RequestType.IFETCH.latency_hist_seqr::bucket_size          512                       (Unspecified)
system.caches.RequestType.IFETCH.latency_hist_seqr::max_bucket         5119                       (Unspecified)
system.caches.RequestType.IFETCH.latency_hist_seqr::samples      7767815                       (Unspecified)
system.caches.RequestType.IFETCH.latency_hist_seqr::mean     1.464243                       (Unspecified)
system.caches.RequestType.IFETCH.latency_hist_seqr::gmean     1.018719                       (Unspecified)
system.caches.RequestType.IFETCH.latency_hist_seqr::stdev    12.513970                       (Unspecified)
system.caches.RequestType.IFETCH.latency_hist_seqr |     7767337     99.99%     99.99% |         316      0.00%    100.00% |         102      0.00%    100.00% |          57      0.00%    100.00% |           0      0.00%    100.00% |           3      0.00%    100.00% |           0      0.00%    100.00% |           0      0.00%    100.00% |           0      0.00%    100.00% |           0      0.00%    100.00% (Unspecified)
system.caches.RequestType.IFETCH.latency_hist_seqr::total      7767815                       (Unspecified)
system.caches.RequestType.IFETCH.hit_latency_hist_seqr::bucket_size            1                       (Unspecified)
system.caches.RequestType.IFETCH.hit_latency_hist_seqr::max_bucket            9                       (Unspecified)
system.caches.RequestType.IFETCH.hit_latency_hist_seqr::samples      7725630                       (Unspecified)
system.caches.RequestType.IFETCH.hit_latency_hist_seqr::mean            1                       (Unspecified)
system.caches.RequestType.IFETCH.hit_latency_hist_seqr::gmean            1                       (Unspecified)
system.caches.RequestType.IFETCH.hit_latency_hist_seqr |           0      0.00%      0.00% |     7725630    100.00%    100.00% |           0      0.00%    100.00% |           0      0.00%    100.00% |           0      0.00%    100.00% |           0      0.00%    100.00% |           0      0.00%    100.00% |           0      0.00%    100.00% |           0      0.00%    100.00% |           0      0.00%    100.00% (Unspecified)
system.caches.RequestType.IFETCH.hit_latency_hist_seqr::total      7725630                       (Unspecified)
system.caches.RequestType.IFETCH.miss_latency_hist_seqr::bucket_size          512                       (Unspecified)
system.caches.RequestType.IFETCH.miss_latency_hist_seqr::max_bucket         5119                       (Unspecified)
system.caches.RequestType.IFETCH.miss_latency_hist_seqr::samples        42185                       (Unspecified)
system.caches.RequestType.IFETCH.miss_latency_hist_seqr::mean    86.484177                       (Unspecified)
system.caches.RequestType.IFETCH.miss_latency_hist_seqr::gmean    30.418898                       (Unspecified)
system.caches.RequestType.IFETCH.miss_latency_hist_seqr::stdev   146.861779                       (Unspecified)
system.caches.RequestType.IFETCH.miss_latency_hist_seqr |       41707     98.87%     98.87% |         316      0.75%     99.62% |         102      0.24%     99.86% |          57      0.14%     99.99% |           0      0.00%     99.99% |           3      0.01%    100.00% |           0      0.00%    100.00% |           0      0.00%    100.00% |           0      0.00%    100.00% |           0      0.00%    100.00% (Unspecified)
system.caches.RequestType.IFETCH.miss_latency_hist_seqr::total        42185                       (Unspecified)
system.caches.RequestType.RMW_Read.latency_hist_seqr::bucket_size          512                       (Unspecified)
system.caches.RequestType.RMW_Read.latency_hist_seqr::max_bucket         5119                       (Unspecified)
system.caches.RequestType.RMW_Read.latency_hist_seqr::samples        14535                       (Unspecified)
system.caches.RequestType.RMW_Read.latency_hist_seqr::mean   134.234537                       (Unspecified)
system.caches.RequestType.RMW_Read.latency_hist_seqr::gmean     5.848044                       (Unspecified)
system.caches.RequestType.RMW_Read.latency_hist_seqr::stdev   320.614064                       (Unspecified)
system.caches.RequestType.RMW_Read.latency_hist_seqr |       12998     89.43%     89.43% |        1214      8.35%     97.78% |         181      1.25%     99.02% |          76      0.52%     99.55% |          44      0.30%     99.85% |          17      0.12%     99.97% |           5      0.03%    100.00% |           0      0.00%    100.00% |           0      0.00%    100.00% |           0      0.00%    100.00% (Unspecified)
system.caches.RequestType.RMW_Read.latency_hist_seqr::total        14535                       (Unspecified)
system.caches.RequestType.RMW_Read.hit_latency_hist_seqr::bucket_size          512                       (Unspecified)
system.caches.RequestType.RMW_Read.hit_latency_hist_seqr::max_bucket         5119                       (Unspecified)
system.caches.RequestType.RMW_Read.hit_latency_hist_seqr::samples        10254                       (Unspecified)
system.caches.RequestType.RMW_Read.hit_latency_hist_seqr::mean    19.433587                       (Unspecified)
system.caches.RequestType.RMW_Read.hit_latency_hist_seqr::gmean     1.490347                       (Unspecified)
system.caches.RequestType.RMW_Read.hit_latency_hist_seqr::stdev   132.069838                       (Unspecified)
system.caches.RequestType.RMW_Read.hit_latency_hist_seqr |       10118     98.67%     98.67% |         101      0.98%     99.66% |          18      0.18%     99.83% |           9      0.09%     99.92% |           4      0.04%     99.96% |           3      0.03%     99.99% |           1      0.01%    100.00% |           0      0.00%    100.00% |           0      0.00%    100.00% |           0      0.00%    100.00% (Unspecified)
system.caches.RequestType.RMW_Read.hit_latency_hist_seqr::total        10254                       (Unspecified)
system.caches.RequestType.RMW_Read.miss_latency_hist_seqr::bucket_size          512                       (Unspecified)
system.caches.RequestType.RMW_Read.miss_latency_hist_seqr::max_bucket         5119                       (Unspecified)
system.caches.RequestType.RMW_Read.miss_latency_hist_seqr::samples         4281                       (Unspecified)
system.caches.RequestType.RMW_Read.miss_latency_hist_seqr::mean   409.209764                       (Unspecified)
system.caches.RequestType.RMW_Read.miss_latency_hist_seqr::gmean   154.566976                       (Unspecified)
system.caches.RequestType.RMW_Read.miss_latency_hist_seqr::stdev   447.299579                       (Unspecified)
system.caches.RequestType.RMW_Read.miss_latency_hist_seqr |        2880     67.27%     67.27% |        1113     26.00%     93.27% |         163      3.81%     97.08% |          67      1.57%     98.65% |          40      0.93%     99.58% |          14      0.33%     99.91% |           4      0.09%    100.00% |           0      0.00%    100.00% |           0      0.00%    100.00% |           0      0.00%    100.00% (Unspecified)
[...]
system.o3Cpu7.iew.squashCycles                   4968                       # Number of cycles IEW is squashing (Cycle)
system.o3Cpu7.iew.blockCycles                 9903638                       # Number of cycles IEW is blocking (Cycle)
system.o3Cpu7.iew.unblockCycles             103976741                       # Number of cycles IEW is unblocking (Cycle)
system.o3Cpu7.iew.dispatchedInsts            13076351                       # Number of instructions dispatched to IQ (Count)
system.o3Cpu7.iew.dispSquashedInsts              2067                       # Number of squashed instructions skipped by dispatch (Count)
system.o3Cpu7.iew.dispLoadInsts               2670148                       # Number of dispatched load instructions (Count)
system.o3Cpu7.iew.dispStoreInsts              2914270                       # Number of dispatched store instructions (Count)
system.o3Cpu7.iew.dispNonSpecInsts               2019                       # Number of dispatched non-speculative instructions (Count)
system.o3Cpu7.iew.iqFullEvents                  18362                       # Number of times the IQ has become full, causing a stall (Count)
system.o3Cpu7.iew.lsqFullEvents             103904411                       # Number of times the LSQ has become full, causing a stall (Count)
system.o3Cpu7.iew.memOrderViolationEvents          594                       # Number of memory order violations (Count)
system.o3Cpu7.iew.predictedTakenIncorrect         3683                       # Number of branches that were predicted taken incorrectly (Count)
system.o3Cpu7.iew.predictedNotTakenIncorrect          685                       # Number of branches that were predicted not taken incorrectly (Count)
system.o3Cpu7.iew.branchMispredicts              4368                       # Number of branch mispredicts detected at execute (Count)
system.o3Cpu7.iew.instsToCommit              13035183                       # Cumulative count of insts sent to commit (Count)
system.o3Cpu7.iew.writebackCount             13034983                       # Cumulative count of insts written-back (Count)
system.o3Cpu7.iew.producerInst                6546926                       # Number of instructions producing a value (Count)
system.o3Cpu7.iew.consumerInst               12407104                       # Number of instructions consuming a value (Count)
system.o3Cpu7.iew.wbRate                     0.054830                       # Insts written-back per cycle ((Count/Cycle))
system.o3Cpu7.iew.wbFanout                   0.527676                       # Average fanout of values written-back ((Count/Count))
system.o3Cpu7.interrupts.clk_domain.clock         3200                       # Clock period in ticks (Tick)
system.o3Cpu7.lsq0.forwLoads                     4775                       # Number of loads that had data forwarded from stores (Count)
system.o3Cpu7.lsq0.squashedLoads                26243                       # Number of loads squashed (Count)
system.o3Cpu7.lsq0.ignoredResponses                 9                       # Number of memory responses ignored because the instruction is squashed (Count)
system.o3Cpu7.lsq0.memOrderViolation              594                       # Number of memory ordering violations (Count)
system.o3Cpu7.lsq0.squashedStores                3568                       # Number of stores squashed (Count)
system.o3Cpu7.lsq0.rescheduledLoads                38                       # Number of loads that were rescheduled (Count)
system.o3Cpu7.lsq0.blockedByCache               36219                       # Number of times an access to memory failed due to the cache being blocked (Count)
system.o3Cpu7.lsq0.loadToUse::samples         2643890                       # Distribution of cycle latency between the first time a load is issued and its completion (Unspecified)
system.o3Cpu7.lsq0.loadToUse::mean         382.181732                       # Distribution of cycle latency between the first time a load is issued and its completion (Unspecified)
system.o3Cpu7.lsq0.loadToUse::stdev        371.609345                       # Distribution of cycle latency between the first time a load is issued and its completion (Unspecified)
system.o3Cpu7.lsq0.loadToUse::0-9              738063     27.92%     27.92% # Distribution of cycle latency between the first time a load is issued and its completion (Unspecified)
system.o3Cpu7.lsq0.loadToUse::10-19             35431      1.34%     29.26% # Distribution of cycle latency between the first time a load is issued and its completion (Unspecified)
system.o3Cpu7.lsq0.loadToUse::20-29             36849      1.39%     30.65% # Distribution of cycle latency between the first time a load is issued and its completion (Unspecified)
system.o3Cpu7.lsq0.loadToUse::30-39             30382      1.15%     31.80% # Distribution of cycle latency between the first time a load is issued and its completion (Unspecified)
system.o3Cpu7.lsq0.loadToUse::40-49             16013      0.61%     32.40% # Distribution of cycle latency between the first time a load is issued and its completion (Unspecified)
system.o3Cpu7.lsq0.loadToUse::50-59             13582      0.51%     32.92% # Distribution of cycle latency between the first time a load is issued and its completion (Unspecified)
system.o3Cpu7.lsq0.loadToUse::60-69             12377      0.47%     33.39% # Distribution of cycle latency between the first time a load is issued and its completion (Unspecified)
system.o3Cpu7.lsq0.loadToUse::70-79             11200      0.42%     33.81% # Distribution of cycle latency between the first time a load is issued and its completion (Unspecified)
system.o3Cpu7.lsq0.loadToUse::80-89             10486      0.40%     34.21% # Distribution of cycle latency between the first time a load is issued and its completion (Unspecified)
system.o3Cpu7.lsq0.loadToUse::90-99              8870      0.34%     34.54% # Distribution of cycle latency between the first time a load is issued and its completion (Unspecified)
system.o3Cpu7.lsq0.loadToUse::100-109            8398      0.32%     34.86% # Distribution of cycle latency between the first time a load is issued and its completion (Unspecified)
system.o3Cpu7.lsq0.loadToUse::110-119            7966      0.30%     35.16% # Distribution of cycle latency between the first time a load is issued and its completion (Unspecified)
system.o3Cpu7.lsq0.loadToUse::120-129            6937      0.26%     35.42% # Distribution of cycle latency between the first time a load is issued and its completion (Unspecified)
system.o3Cpu7.lsq0.loadToUse::130-139            7144      0.27%     35.69% # Distribution of cycle latency between the first time a load is issued and its completion (Unspecified)
system.o3Cpu7.lsq0.loadToUse::140-149            6152      0.23%     35.93% # Distribution of cycle latency between the first time a load is issued and its completion (Unspecified)
system.o3Cpu7.lsq0.loadToUse::150-159            5777      0.22%     36.14% # Distribution of cycle latency between the first time a load is issued and its completion (Unspecified)
system.o3Cpu7.lsq0.loadToUse::160-169            5687      0.22%     36.36% # Distribution of cycle latency between the first time a load is issued and its completion (Unspecified)
system.o3Cpu7.lsq0.loadToUse::170-179            5115      0.19%     36.55% # Distribution of cycle latency between the first time a load is issued and its completion (Unspecified)
system.o3Cpu7.lsq0.loadToUse::180-189            4901      0.19%     36.74% # Distribution of cycle latency between the first time a load is issued and its completion (Unspecified)
system.o3Cpu7.lsq0.loadToUse::190-199            4232      0.16%     36.90% # Distribution of cycle latency between the first time a load is issued and its completion (Unspecified)
system.o3Cpu7.lsq0.loadToUse::200-209            4403      0.17%     37.07% # Distribution of cycle latency between the first time a load is issued and its completion (Unspecified)
system.o3Cpu7.lsq0.loadToUse::210-219            4524      0.17%     37.24% # Distribution of cycle latency between the first time a load is issued and its completion (Unspecified)
system.o3Cpu7.lsq0.loadToUse::220-229            3516      0.13%     37.37% # Distribution of cycle latency between the first time a load is issued and its completion (Unspecified)
system.o3Cpu7.lsq0.loadToUse::230-239            2840      0.11%     37.48% # Distribution of cycle latency between the first time a load is issued and its completion (Unspecified)
system.o3Cpu7.lsq0.loadToUse::240-249            2436      0.09%     37.57% # Distribution of cycle latency between the first time a load is issued and its completion (Unspecified)
system.o3Cpu7.lsq0.loadToUse::250-259            2580      0.10%     37.67% # Distribution of cycle latency between the first time a load is issued and its completion (Unspecified)
system.o3Cpu7.lsq0.loadToUse::260-269            2423      0.09%     37.76% # Distribution of cycle latency between the first time a load is issued and its completion (Unspecified)
system.o3Cpu7.lsq0.loadToUse::270-279            2792      0.11%     37.86% # Distribution of cycle latency between the first time a load is issued and its completion (Unspecified)
system.o3Cpu7.lsq0.loadToUse::280-289            2667      0.10%     37.96% # Distribution of cycle latency between the first time a load is issued and its completion (Unspecified)
system.o3Cpu7.lsq0.loadToUse::290-299            2421      0.09%     38.06% # Distribution of cycle latency between the first time a load is issued and its completion (Unspecified)
system.o3Cpu7.lsq0.loadToUse::overflows       1637726     61.94%    100.00% # Distribution of cycle latency between the first time a load is issued and its completion (Unspecified)
system.o3Cpu7.lsq0.loadToUse::min_value             2                       # Distribution of cycle latency between the first time a load is issued and its completion (Unspecified)
system.o3Cpu7.lsq0.loadToUse::max_value          4239                       # Distribution of cycle latency between the first time a load is issued and its completion (Unspecified)
system.o3Cpu7.lsq0.loadToUse::total           2643890                       # Distribution of cycle latency between the first time a load is issued and its completion (Unspecified)
system.o3Cpu7.mmu.dtb.rdAccesses              2656366                       # TLB accesses on read requests (Count)
system.o3Cpu7.mmu.dtb.wrAccesses              2913877                       # TLB accesses on write requests (Count)
system.o3Cpu7.mmu.dtb.rdMisses                   2558                       # TLB misses on read requests (Count)
system.o3Cpu7.mmu.dtb.wrMisses                   1645                       # TLB misses on write requests (Count)
system.o3Cpu7.mmu.dtb.walker.power_state.pwrStateResidencyTicks::UNDEFINED  49560722400                       # Cumulative time (in ticks) in various power states (Tick)
system.o3Cpu7.mmu.itb.rdAccesses                    0                       # TLB accesses on read requests (Count)
system.o3Cpu7.mmu.itb.wrAccesses               986410                       # TLB accesses on write requests (Count)
system.o3Cpu7.mmu.itb.rdMisses                      0                       # TLB misses on read requests (Count)
system.o3Cpu7.mmu.itb.wrMisses                    113                       # TLB misses on write requests (Count)
system.o3Cpu7.mmu.itb.walker.power_state.pwrStateResidencyTicks::UNDEFINED  49560722400                       # Cumulative time (in ticks) in various power states (Tick)
system.o3Cpu7.power_state.pwrStateResidencyTicks::OFF  49560722400                       # Cumulative time (in ticks) in various power states (Tick)
system.o3Cpu7.rename.squashCycles                4968                       # Number of cycles rename is squashing (Cycle)
system.o3Cpu7.rename.idleCycles                902981                       # Number of cycles rename is idle (Cycle)
system.o3Cpu7.rename.blockCycles            114038147                       # Number of cycles rename is blocking (Cycle)
system.o3Cpu7.rename.serializeStallCycles       464727                       # count of cycles rename stalled for serializing inst (Cycle)
system.o3Cpu7.rename.runCycles                1241391                       # Number of cycles rename is running (Cycle)
system.o3Cpu7.rename.unblockCycles          120762019                       # Number of cycles rename is unblocking (Cycle)
system.o3Cpu7.rename.renamedInsts            13094968                       # Number of instructions processed by rename (Count)
system.o3Cpu7.rename.ROBFullEvents              22594                       # Number of times rename has blocked due to ROB full (Count)
system.o3Cpu7.rename.IQFullEvents             1283169                       # Number of times rename has blocked due to IQ full (Count)
system.o3Cpu7.rename.LQFullEvents               58447                       # Number of times rename has blocked due to LQ full (Count)
system.o3Cpu7.rename.SQFullEvents           120374657                       # Number of times rename has blocked due to SQ full (Count)
system.o3Cpu7.rename.renamedOperands         16017891                       # Number of destination operands rename has renamed (Count)
system.o3Cpu7.rename.lookups                 41170540                       # Number of register rename lookups that rename has made (Count)
system.o3Cpu7.rename.intLookups               8974940                       # Number of integer rename lookups (Count)
system.o3Cpu7.rename.fpLookups               12288997                       # Number of floating rename lookups (Count)
system.o3Cpu7.rename.committedMaps           15854717                       # Number of HB maps that are committed (Count)
system.o3Cpu7.rename.undoneMaps                163130                       # Number of HB maps that are undone due to squashing (Count)
system.o3Cpu7.rename.serializing                 2113                       # count of serializing insts renamed (Count)
system.o3Cpu7.rename.tempSerializing             2234                       # count of temporary serializing insts renamed (Count)
system.o3Cpu7.rename.skidInsts                5946950                       # count of insts added to the skid buffer (Count)
system.o3Cpu7.rob.reads                     249759441                       # The number of ROB reads (Count)
system.o3Cpu7.rob.writes                     26162015                       # The number of ROB writes (Count)
system.o3Cpu7.thread_0.numInsts               8028982                       # Number of Instructions committed (Count)
system.o3Cpu7.thread_0.numOps                12991513                       # Number of Ops committed (Count)
system.o3Cpu7.thread_0.numMemRefs                   0                       # Number of Memory References (Count)
system.pc.bad_addr.power_state.pwrStateResidencyTicks::UNDEFINED  49560722400                       # Cumulative time (in ticks) in various power states (Tick)
system.pc.com_1.power_state.pwrStateResidencyTicks::UNDEFINED  49560722400                       # Cumulative time (in ticks) in various power states (Tick)
system.pc.default_bus.power_state.pwrStateResidencyTicks::UNDEFINED  49560722400                       # Cumulative time (in ticks) in various power states (Tick)
system.pc.empty_isa.power_state.pwrStateResidencyTicks::UNDEFINED  49560722400                       # Cumulative time (in ticks) in various power states (Tick)
system.pc.fake_com_2.power_state.pwrStateResidencyTicks::UNDEFINED  49560722400                       # Cumulative time (in ticks) in various power states (Tick)
system.pc.fake_com_3.power_state.pwrStateResidencyTicks::UNDEFINED  49560722400                       # Cumulative time (in ticks) in various power states (Tick)
system.pc.fake_com_4.power_state.pwrStateResidencyTicks::UNDEFINED  49560722400                       # Cumulative time (in ticks) in various power states (Tick)
system.pc.fake_floppy.power_state.pwrStateResidencyTicks::UNDEFINED  49560722400                       # Cumulative time (in ticks) in various power states (Tick)
system.pc.pci_host.power_state.pwrStateResidencyTicks::UNDEFINED  49560722400                       # Cumulative time (in ticks) in various power states (Tick)
system.pc.south_bridge.cmos.power_state.pwrStateResidencyTicks::UNDEFINED  49560722400                       # Cumulative time (in ticks) in various power states (Tick)
system.pc.south_bridge.dma1.power_state.pwrStateResidencyTicks::UNDEFINED  49560722400                       # Cumulative time (in ticks) in various power states (Tick)
system.pc.south_bridge.ide.disks0.IdeDisk.dmaReadFullPages            0                       # Number of full page size DMA reads (not PRD). (Count)
system.pc.south_bridge.ide.disks0.IdeDisk.dmaReadBytes            0                       # Number of bytes transfered via DMA reads (not PRD). (Byte)
system.pc.south_bridge.ide.disks0.IdeDisk.dmaReadTxs            0                       # Number of DMA read transactions (not PRD). (Count)
system.pc.south_bridge.ide.disks0.IdeDisk.dmaWriteFullPages            0                       # Number of full page size DMA writes. (Count)
system.pc.south_bridge.ide.disks0.IdeDisk.dmaWriteBytes            0                       # Number of bytes transfered via DMA writes. (Byte)
system.pc.south_bridge.ide.disks0.IdeDisk.dmaWriteTxs            0                       # Number of DMA write transactions. (Count)
system.pc.south_bridge.ide.disks1.IdeDisk.dmaReadFullPages            0                       # Number of full page size DMA reads (not PRD). (Count)
system.pc.south_bridge.ide.disks1.IdeDisk.dmaReadBytes            0                       # Number of bytes transfered via DMA reads (not PRD). (Byte)
system.pc.south_bridge.ide.disks1.IdeDisk.dmaReadTxs            0                       # Number of DMA read transactions (not PRD). (Count)
system.pc.south_bridge.ide.disks1.IdeDisk.dmaWriteFullPages            0                       # Number of full page size DMA writes. (Count)
system.pc.south_bridge.ide.disks1.IdeDisk.dmaWriteBytes            0                       # Number of bytes transfered via DMA writes. (Byte)
system.pc.south_bridge.ide.disks1.IdeDisk.dmaWriteTxs            0                       # Number of DMA write transactions. (Count)
system.pc.south_bridge.ide.power_state.pwrStateResidencyTicks::UNDEFINED  49560722400                       # Cumulative time (in ticks) in various power states (Tick)
system.pc.south_bridge.io_apic.power_state.pwrStateResidencyTicks::UNDEFINED  49560722400                       # Cumulative time (in ticks) in various power states (Tick)
system.pc.south_bridge.keyboard.power_state.pwrStateResidencyTicks::UNDEFINED  49560722400                       # Cumulative time (in ticks) in various power states (Tick)
system.pc.south_bridge.pic1.power_state.pwrStateResidencyTicks::UNDEFINED  49560722400                       # Cumulative time (in ticks) in various power states (Tick)
system.pc.south_bridge.pic2.power_state.pwrStateResidencyTicks::UNDEFINED  49560722400                       # Cumulative time (in ticks) in various power states (Tick)
system.pc.south_bridge.pit.power_state.pwrStateResidencyTicks::UNDEFINED  49560722400                       # Cumulative time (in ticks) in various power states (Tick)
system.pc.south_bridge.speaker.power_state.pwrStateResidencyTicks::UNDEFINED  49560722400                       # Cumulative time (in ticks) in various power states (Tick)
system.workload.inst.arm                            0                       # number of arm instructions executed (Count)
system.workload.inst.quiesce                        0                       # number of quiesce instructions executed (Count)

---------- End Simulation Statistics   ----------
