
---------- Begin Simulation Statistics ----------
simSeconds                                   0.047083                       # Number of seconds simulated (Second)
simTicks                                  47082600640                       # Number of ticks simulated (Tick)
finalTick                                21716377415400                       # Number of ticks from beginning of simulation (restored from checkpoints and never reset) (Tick)
simFreq                                  1000000000000                       # The number of ticks per simulated second ((Tick/Second))
hostSeconds                                   4246.96                       # Real time elapsed on the host (Second)
hostTickRate                                 11086201                       # The number of ticks simulated per host second (ticks/s) ((Tick/Second))
hostMemory                                   19831104                       # Number of bytes of host memory used (Byte)
simInsts                                     64148851                       # Number of instructions simulated (Count)
simOps                                      104897666                       # Number of ops (including micro ops) simulated (Count)
hostInstRate                                    15105                       # Simulator instruction rate (inst/s) ((Count/Second))
hostOpRate                                      24699                       # Simulator op (including micro ops) rate (op/s) ((Count/Second))
system.caches.delayHistogram::bucket_size           16                       # delay histogram for all message (Unspecified)
system.caches.delayHistogram::max_bucket          159                       # delay histogram for all message (Unspecified)
system.caches.delayHistogram::samples        39485135                       # delay histogram for all message (Unspecified)
system.caches.delayHistogram::mean           0.681973                       # delay histogram for all message (Unspecified)
system.caches.delayHistogram::stdev          2.336040                       # delay histogram for all message (Unspecified)
system.caches.delayHistogram             |    39434800     99.87%     99.87% |       47230      0.12%     99.99% |        1931      0.00%    100.00% |         949      0.00%    100.00% |         196      0.00%    100.00% |          29      0.00%    100.00% |           0      0.00%    100.00% |           0      0.00%    100.00% |           0      0.00%    100.00% |           0      0.00%    100.00% # delay histogram for all message (Unspecified)
system.caches.delayHistogram::total          39485135                       # delay histogram for all message (Unspecified)
system.caches.m_outstandReqHistSeqr::bucket_size            2                       (Unspecified)
system.caches.m_outstandReqHistSeqr::max_bucket           19                       (Unspecified)
system.caches.m_outstandReqHistSeqr::samples     43345470                       (Unspecified)
system.caches.m_outstandReqHistSeqr::mean     3.271800                       (Unspecified)
system.caches.m_outstandReqHistSeqr::gmean     2.329248                       (Unspecified)
system.caches.m_outstandReqHistSeqr::stdev     2.899785                       (Unspecified)
system.caches.m_outstandReqHistSeqr      |    16351571     37.72%     37.72% |    12925306     29.82%     67.54% |     5503874     12.70%     80.24% |     4106181      9.47%     89.71% |     1726233      3.98%     93.70% |     2113488      4.88%     98.57% |      426406      0.98%     99.56% |      144615      0.33%     99.89% |       47796      0.11%    100.00% |           0      0.00%    100.00% (Unspecified)
system.caches.m_outstandReqHistSeqr::total     43345470                       (Unspecified)
system.caches.m_latencyHistSeqr::bucket_size          512                       (Unspecified)
system.caches.m_latencyHistSeqr::max_bucket         5119                       (Unspecified)
system.caches.m_latencyHistSeqr::samples     43348677                       (Unspecified)
system.caches.m_latencyHistSeqr::mean       79.726577                       (Unspecified)
system.caches.m_latencyHistSeqr::gmean       2.286798                       (Unspecified)
system.caches.m_latencyHistSeqr::stdev     232.105779                       (Unspecified)
system.caches.m_latencyHistSeqr          |    40412453     93.23%     93.23% |     2712577      6.26%     99.48% |      127274      0.29%     99.78% |       11010      0.03%     99.80% |       50117      0.12%     99.92% |       33542      0.08%    100.00% |        1533      0.00%    100.00% |         142      0.00%    100.00% |          29      0.00%    100.00% |           0      0.00%    100.00% (Unspecified)
system.caches.m_latencyHistSeqr::total       43348677                       (Unspecified)
system.caches.m_hitLatencyHistSeqr::bucket_size          512                       (Unspecified)
system.caches.m_hitLatencyHistSeqr::max_bucket         5119                       (Unspecified)
system.caches.m_hitLatencyHistSeqr::samples     37661112                       (Unspecified)
system.caches.m_hitLatencyHistSeqr::mean     1.008794                       (Unspecified)
system.caches.m_hitLatencyHistSeqr::gmean     1.001665                       (Unspecified)
system.caches.m_hitLatencyHistSeqr::stdev     2.183259                       (Unspecified)
system.caches.m_hitLatencyHistSeqr       |    37660943    100.00%    100.00% |         148      0.00%    100.00% |          11      0.00%    100.00% |           4      0.00%    100.00% |           3      0.00%    100.00% |           3      0.00%    100.00% |           0      0.00%    100.00% |           0      0.00%    100.00% |           0      0.00%    100.00% |           0      0.00%    100.00% (Unspecified)
system.caches.m_hitLatencyHistSeqr::total     37661112                       (Unspecified)
system.caches.m_missLatencyHistSeqr::bucket_size          512                       (Unspecified)
system.caches.m_missLatencyHistSeqr::max_bucket         5119                       (Unspecified)
system.caches.m_missLatencyHistSeqr::samples      5687565                       (Unspecified)
system.caches.m_missLatencyHistSeqr::mean   600.968841                       (Unspecified)
system.caches.m_missLatencyHistSeqr::gmean   540.912614                       (Unspecified)
system.caches.m_missLatencyHistSeqr::stdev   312.803799                       (Unspecified)
system.caches.m_missLatencyHistSeqr      |     2751510     48.38%     48.38% |     2712429     47.69%     96.07% |      127263      2.24%     98.31% |       11006      0.19%     98.50% |       50114      0.88%     99.38% |       33539      0.59%     99.97% |        1533      0.03%    100.00% |         142      0.00%    100.00% |          29      0.00%    100.00% |           0      0.00%    100.00% (Unspecified)
system.caches.m_missLatencyHistSeqr::total      5687565                       (Unspecified)
system.caches.delayVCHist.vnet_0::bucket_size           16                       # delay histogram for vnet_0 (Unspecified)
system.caches.delayVCHist.vnet_0::max_bucket          159                       # delay histogram for vnet_0 (Unspecified)
system.caches.delayVCHist.vnet_0::samples     16832152                       # delay histogram for vnet_0 (Unspecified)
system.caches.delayVCHist.vnet_0::mean       1.551788                       # delay histogram for vnet_0 (Unspecified)
system.caches.delayVCHist.vnet_0::stdev      3.355984                       # delay histogram for vnet_0 (Unspecified)
system.caches.delayVCHist.vnet_0         |    16782123     99.70%     99.70% |       46924      0.28%     99.98% |        1931      0.01%     99.99% |         949      0.01%    100.00% |         196      0.00%    100.00% |          29      0.00%    100.00% |           0      0.00%    100.00% |           0      0.00%    100.00% |           0      0.00%    100.00% |           0      0.00%    100.00% # delay histogram for vnet_0 (Unspecified)
system.caches.delayVCHist.vnet_0::total      16832152                       # delay histogram for vnet_0 (Unspecified)
system.caches.delayVCHist.vnet_1::bucket_size            4                       # delay histogram for vnet_1 (Unspecified)
system.caches.delayVCHist.vnet_1::max_bucket           39                       # delay histogram for vnet_1 (Unspecified)
system.caches.delayVCHist.vnet_1::samples     22547817                       # delay histogram for vnet_1 (Unspecified)
system.caches.delayVCHist.vnet_1::mean       0.035828                       # delay histogram for vnet_1 (Unspecified)
system.caches.delayVCHist.vnet_1::stdev      0.405192                       # delay histogram for vnet_1 (Unspecified)
system.caches.delayVCHist.vnet_1         |    22421272     99.44%     99.44% |      121328      0.54%     99.98% |        3585      0.02%     99.99% |        1326      0.01%    100.00% |         285      0.00%    100.00% |          16      0.00%    100.00% |           2      0.00%    100.00% |           3      0.00%    100.00% |           0      0.00%    100.00% |           0      0.00%    100.00% # delay histogram for vnet_1 (Unspecified)
system.caches.delayVCHist.vnet_1::total      22547817                       # delay histogram for vnet_1 (Unspecified)
system.caches.delayVCHist.vnet_2::bucket_size            1                       # delay histogram for vnet_2 (Unspecified)
system.caches.delayVCHist.vnet_2::max_bucket            9                       # delay histogram for vnet_2 (Unspecified)
system.caches.delayVCHist.vnet_2::samples       105166                       # delay histogram for vnet_2 (Unspecified)
system.caches.delayVCHist.vnet_2::mean       0.000247                       # delay histogram for vnet_2 (Unspecified)
system.caches.delayVCHist.vnet_2::stdev      0.022235                       # delay histogram for vnet_2 (Unspecified)
system.caches.delayVCHist.vnet_2         |      105153     99.99%     99.99% |           0      0.00%     99.99% |          13      0.01%    100.00% |           0      0.00%    100.00% |           0      0.00%    100.00% |           0      0.00%    100.00% |           0      0.00%    100.00% |           0      0.00%    100.00% |           0      0.00%    100.00% |           0      0.00%    100.00% # delay histogram for vnet_2 (Unspecified)
system.caches.delayVCHist.vnet_2::total        105166                       # delay histogram for vnet_2 (Unspecified)
system.caches.L1Cache_Controller.Load    |      937762     12.53%     12.53% |      921149     12.31%     24.85% |     1013862     13.55%     38.40% |      978365     13.08%     51.47% |      900007     12.03%     63.50% |      952183     12.73%     76.23% |      865201     11.56%     87.79% |      913312     12.21%    100.00% (Unspecified)
system.caches.L1Cache_Controller.Load::total      7481841                       (Unspecified)
system.caches.L1Cache_Controller.Ifetch  |     1722430     13.73%     13.73% |     1419605     11.32%     25.05% |     1743266     13.90%     38.95% |     1547780     12.34%     51.29% |     1393537     11.11%     62.40% |     1649463     13.15%     75.55% |     1464705     11.68%     87.23% |     1601440     12.77%    100.00% (Unspecified)
system.caches.L1Cache_Controller.Ifetch::total     12542226                       (Unspecified)
system.caches.L1Cache_Controller.Store   |     2917001     12.51%     12.51% |     2906789     12.46%     24.97% |     2914411     12.49%     37.46% |     2916188     12.50%     49.97% |     2905187     12.46%     62.42% |     2916706     12.50%     74.93% |     2921237     12.52%     87.45% |     2927103     12.55%    100.00% (Unspecified)
system.caches.L1Cache_Controller.Store::total     23324622                       (Unspecified)
system.caches.L1Cache_Controller.Inv     |       14192     13.69%     13.69% |       12866     12.41%     26.10% |       12543     12.10%     38.20% |       13365     12.89%     51.09% |       13347     12.87%     63.97% |       12660     12.21%     76.18% |       12136     11.71%     87.88% |       12561     12.12%    100.00% (Unspecified)
system.caches.L1Cache_Controller.Inv::total       103670                       (Unspecified)
system.caches.L1Cache_Controller.L1_Replacement |      698133     12.38%     12.38% |      710304     12.59%     24.97% |      695716     12.33%     37.30% |      706336     12.52%     49.82% |      711368     12.61%     62.43% |      701198     12.43%     74.86% |      711872     12.62%     87.48% |      706239     12.52%    100.00% (Unspecified)
system.caches.L1Cache_Controller.L1_Replacement::total      5641166                       (Unspecified)
system.caches.L1Cache_Controller.Fwd_GETX |           0      0.00%      0.00% |           2     33.33%     33.33% |           4     66.67%    100.00% |           0      0.00%    100.00% |           0      0.00%    100.00% |           0      0.00%    100.00% |           0      0.00%    100.00% |           0      0.00%    100.00% (Unspecified)
system.caches.L1Cache_Controller.Fwd_GETX::total            6                       (Unspecified)
system.caches.L1Cache_Controller.Fwd_GETS |        1083     72.68%     72.68% |         225     15.10%     87.79% |          45      3.02%     90.81% |          28      1.88%     92.68% |           9      0.60%     93.29% |          72      4.83%     98.12% |           9      0.60%     98.72% |          19      1.28%    100.00% (Unspecified)
system.caches.L1Cache_Controller.Fwd_GETS::total         1490                       (Unspecified)
system.caches.L1Cache_Controller.Data    |          19    100.00%    100.00% |           0      0.00%    100.00% |           0      0.00%    100.00% |           0      0.00%    100.00% |           0      0.00%    100.00% |           0      0.00%    100.00% |           0      0.00%    100.00% |           0      0.00%    100.00% (Unspecified)
system.caches.L1Cache_Controller.Data::total           19                       (Unspecified)
system.caches.L1Cache_Controller.Data_Exclusive |      325127     12.21%     12.21% |      339468     12.74%     24.95% |      323739     12.15%     37.10% |      334136     12.54%     49.65% |      340531     12.78%     62.43% |      328894     12.35%     74.78% |      339092     12.73%     87.51% |      332751     12.49%    100.00% (Unspecified)
system.caches.L1Cache_Controller.Data_Exclusive::total      2663738                       (Unspecified)
system.caches.L1Cache_Controller.DataS_fromL1 |          74      4.97%      4.97% |         813     54.56%     59.53% |         366     24.56%     84.09% |         115      7.72%     91.81% |          44      2.95%     94.77% |          48      3.22%     97.99% |          13      0.87%     98.86% |          17      1.14%    100.00% (Unspecified)
system.caches.L1Cache_Controller.DataS_fromL1::total         1490                       (Unspecified)
system.caches.L1Cache_Controller.Data_all_Acks |      378517     12.53%     12.53% |      375854     12.44%     24.96% |      377500     12.49%     37.45% |      377933     12.51%     49.96% |      376594     12.46%     62.42% |      377970     12.51%     74.93% |      378464     12.52%     87.45% |      379239     12.55%    100.00% (Unspecified)
system.caches.L1Cache_Controller.Data_all_Acks::total      3022071                       (Unspecified)
system.caches.L1Cache_Controller.Ack     |        1139    100.00%    100.00% |           0      0.00%    100.00% |           0      0.00%    100.00% |           0      0.00%    100.00% |           0      0.00%    100.00% |           0      0.00%    100.00% |           0      0.00%    100.00% |           0      0.00%    100.00% (Unspecified)
system.caches.L1Cache_Controller.Ack::total         1139                       (Unspecified)
system.caches.L1Cache_Controller.Ack_all |         266    100.00%    100.00% |           0      0.00%    100.00% |           0      0.00%    100.00% |           0      0.00%    100.00% |           0      0.00%    100.00% |           0      0.00%    100.00% |           0      0.00%    100.00% |           0      0.00%    100.00% (Unspecified)
system.caches.L1Cache_Controller.Ack_all::total          266                       (Unspecified)
system.caches.L1Cache_Controller.WB_Ack  |      688805     12.40%     12.40% |      699130     12.59%     24.99% |      684726     12.33%     37.32% |      695209     12.52%     49.83% |      700357     12.61%     62.44% |      689815     12.42%     74.86% |      700912     12.62%     87.48% |      695373     12.52%    100.00% (Unspecified)
system.caches.L1Cache_Controller.WB_Ack::total      5554327                       (Unspecified)
system.caches.L1Cache_Controller.NP.Load |      327887     12.19%     12.19% |      342750     12.74%     24.93% |      327201     12.16%     37.09% |      337609     12.55%     49.63% |      344017     12.79%     62.42% |      332374     12.35%     74.77% |      342508     12.73%     87.50% |      336228     12.50%    100.00% (Unspecified)
system.caches.L1Cache_Controller.NP.Load::total      2690574                       (Unspecified)
system.caches.L1Cache_Controller.NP.Ifetch |        5208     19.90%     19.90% |        3011     11.51%     31.41% |        3006     11.49%     42.89% |        3003     11.48%     54.37% |        3010     11.50%     65.87% |        3023     11.55%     77.42% |        3013     11.51%     88.94% |        2895     11.06%    100.00% (Unspecified)
system.caches.L1Cache_Controller.NP.Ifetch::total        26169                       (Unspecified)
system.caches.L1Cache_Controller.NP.Store |      365196     12.49%     12.49% |      364568     12.46%     24.95% |      365534     12.50%     37.45% |      365748     12.51%     49.95% |      364365     12.46%     62.41% |      365827     12.51%     74.92% |      366377     12.53%     87.45% |      367141     12.55%    100.00% (Unspecified)
system.caches.L1Cache_Controller.NP.Store::total      2924756                       (Unspecified)
system.caches.L1Cache_Controller.NP.Inv  |        5576     14.76%     14.76% |        4585     12.14%     26.90% |        4620     12.23%     39.13% |        4593     12.16%     51.29% |        4577     12.12%     63.41% |        4668     12.36%     75.76% |        4598     12.17%     87.94% |        4557     12.06%    100.00% (Unspecified)
system.caches.L1Cache_Controller.NP.Inv::total        37774                       (Unspecified)
system.caches.L1Cache_Controller.I.Load  |           0      0.00%      0.00% |         253     19.67%     19.67% |         265     20.61%     40.28% |         252     19.60%     59.88% |         223     17.34%     77.22% |         113      8.79%     86.00% |          83      6.45%     92.46% |          97      7.54%    100.00% (Unspecified)
system.caches.L1Cache_Controller.I.Load::total         1286                       (Unspecified)
system.caches.L1Cache_Controller.I.Ifetch |        5447     12.24%     12.24% |        5555     12.48%     24.71% |        5598     12.57%     37.29% |        5572     12.52%     49.81% |        5553     12.47%     62.28% |        5577     12.53%     74.81% |        5570     12.51%     87.32% |        5645     12.68%    100.00% (Unspecified)
system.caches.L1Cache_Controller.I.Ifetch::total        44517                       (Unspecified)
system.caches.L1Cache_Controller.I.Store |           0      0.00%      0.00% |           0      0.00%      0.00% |           2      7.14%      7.14% |           1      3.57%     10.71% |           3     10.71%     21.43% |           0      0.00%     21.43% |          20     71.43%     92.86% |           2      7.14%    100.00% (Unspecified)
system.caches.L1Cache_Controller.I.Store::total           28                       (Unspecified)
system.caches.L1Cache_Controller.I.L1_Replacement |        3018      6.73%      6.73% |        6098     13.59%     20.32% |        5870     13.08%     33.40% |        6050     13.48%     46.88% |        5945     13.25%     60.13% |        6209     13.84%     73.97% |        5868     13.08%     87.05% |        5810     12.95%    100.00% (Unspecified)
system.caches.L1Cache_Controller.I.L1_Replacement::total        44868                       (Unspecified)
system.caches.L1Cache_Controller.S.Load  |       11011      3.46%      3.46% |       70633     22.18%     25.64% |       69651     21.87%     47.51% |       68554     21.53%     69.04% |       48269     15.16%     84.19% |       19064      5.99%     90.18% |       13212      4.15%     94.33% |       18063      5.67%    100.00% (Unspecified)
system.caches.L1Cache_Controller.S.Load::total       318457                       (Unspecified)
system.caches.L1Cache_Controller.S.Ifetch |     1711775     13.73%     13.73% |     1411039     11.31%     25.04% |     1734662     13.91%     38.95% |     1539205     12.34%     51.29% |     1384974     11.11%     62.40% |     1640863     13.16%     75.55% |     1456122     11.68%     87.23% |     1592900     12.77%    100.00% (Unspecified)
system.caches.L1Cache_Controller.S.Ifetch::total     12471540                       (Unspecified)
system.caches.L1Cache_Controller.S.Store |         247    100.00%    100.00% |           0      0.00%    100.00% |           0      0.00%    100.00% |           0      0.00%    100.00% |           0      0.00%    100.00% |           0      0.00%    100.00% |           0      0.00%    100.00% |           0      0.00%    100.00% (Unspecified)
system.caches.L1Cache_Controller.S.Store::total          247                       (Unspecified)
system.caches.L1Cache_Controller.S.Inv   |        7934     13.67%     13.67% |        7239     12.48%     26.15% |        7231     12.46%     38.61% |        7213     12.43%     51.04% |        7172     12.36%     63.40% |        7104     12.24%     75.64% |        7045     12.14%     87.78% |        7088     12.22%    100.00% (Unspecified)
system.caches.L1Cache_Controller.S.Inv::total        58026                       (Unspecified)
system.caches.L1Cache_Controller.S.L1_Replacement |        6310     15.03%     15.03% |        5076     12.09%     27.13% |        5120     12.20%     39.33% |        5077     12.10%     51.43% |        5066     12.07%     63.50% |        5174     12.33%     75.83% |        5090     12.13%     87.95% |        5056     12.05%    100.00% (Unspecified)
system.caches.L1Cache_Controller.S.L1_Replacement::total        41969                       (Unspecified)
system.caches.L1Cache_Controller.E.Load  |      578687     13.22%     13.22% |      496634     11.35%     24.57% |      605885     13.84%     38.41% |      561219     12.82%     51.23% |      497061     11.36%     62.59% |      590396     13.49%     76.07% |      499011     11.40%     87.47% |      548309     12.53%    100.00% (Unspecified)
system.caches.L1Cache_Controller.E.Load::total      4377202                       (Unspecified)
system.caches.L1Cache_Controller.E.Store |         768     18.43%     18.43% |         486     11.66%     30.09% |         490     11.76%     41.84% |         486     11.66%     53.50% |         487     11.68%     65.19% |         487     11.68%     76.87% |         481     11.54%     88.41% |         483     11.59%    100.00% (Unspecified)
system.caches.L1Cache_Controller.E.Store::total         4168                       (Unspecified)
system.caches.L1Cache_Controller.E.Inv   |         337      9.93%      9.93% |         478     14.08%     24.01% |         224      6.60%     30.60% |         620     18.26%     48.87% |         827     24.36%     73.23% |         311      9.16%     82.39% |         292      8.60%     90.99% |         306      9.01%    100.00% (Unspecified)
system.caches.L1Cache_Controller.E.Inv::total         3395                       (Unspecified)
system.caches.L1Cache_Controller.E.L1_Replacement |      321318     12.17%     12.17% |      336402     12.74%     24.91% |      321018     12.16%     37.07% |      331409     12.55%     49.62% |      337769     12.79%     62.42% |      326064     12.35%     74.77% |      336271     12.74%     87.50% |      329948     12.50%    100.00% (Unspecified)
system.caches.L1Cache_Controller.E.L1_Replacement::total      2640199                       (Unspecified)
system.caches.L1Cache_Controller.E.Fwd_GETX |           0      0.00%      0.00% |           2     33.33%     33.33% |           4     66.67%    100.00% |           0      0.00%    100.00% |           0      0.00%    100.00% |           0      0.00%    100.00% |           0      0.00%    100.00% |           0      0.00%    100.00% (Unspecified)
system.caches.L1Cache_Controller.E.Fwd_GETX::total            6                       (Unspecified)
system.caches.L1Cache_Controller.E.Fwd_GETS |         656     61.71%     61.71% |         225     21.17%     82.88% |          45      4.23%     87.11% |          28      2.63%     89.75% |           9      0.85%     90.59% |          72      6.77%     97.37% |           9      0.85%     98.21% |          19      1.79%    100.00% (Unspecified)
system.caches.L1Cache_Controller.E.Fwd_GETS::total         1063                       (Unspecified)
system.caches.L1Cache_Controller.M.Load  |       20177     21.39%     21.39% |       10879     11.53%     32.93% |       10860     11.51%     44.44% |       10731     11.38%     55.82% |       10437     11.07%     66.88% |       10236     10.85%     77.73% |       10387     11.01%     88.75% |       10615     11.25%    100.00% (Unspecified)
system.caches.L1Cache_Controller.M.Load::total        94322                       (Unspecified)
system.caches.L1Cache_Controller.M.Store |     2550790     12.51%     12.51% |     2541735     12.46%     24.97% |     2548385     12.49%     37.46% |     2549953     12.50%     49.97% |     2540332     12.46%     62.42% |     2550392     12.50%     74.93% |     2554359     12.52%     87.45% |     2559477     12.55%    100.00% (Unspecified)
system.caches.L1Cache_Controller.M.Store::total     20395423                       (Unspecified)
system.caches.L1Cache_Controller.M.Inv   |         345      8.31%      8.31% |         520     12.52%     20.82% |         402      9.68%     30.50% |         869     20.92%     51.42% |         695     16.73%     68.15% |         549     13.22%     81.37% |         197      4.74%     86.11% |         577     13.89%    100.00% (Unspecified)
system.caches.L1Cache_Controller.M.Inv::total         4154                       (Unspecified)
system.caches.L1Cache_Controller.M.L1_Replacement |      367487     12.61%     12.61% |      362728     12.45%     25.06% |      363708     12.48%     37.54% |      363800     12.48%     50.02% |      362588     12.44%     62.46% |      363751     12.48%     74.95% |      364643     12.51%     87.46% |      365425     12.54%    100.00% (Unspecified)
system.caches.L1Cache_Controller.M.L1_Replacement::total      2914130                       (Unspecified)
system.caches.L1Cache_Controller.M.Fwd_GETS |         427    100.00%    100.00% |           0      0.00%    100.00% |           0      0.00%    100.00% |           0      0.00%    100.00% |           0      0.00%    100.00% |           0      0.00%    100.00% |           0      0.00%    100.00% |           0      0.00%    100.00% (Unspecified)
system.caches.L1Cache_Controller.M.Fwd_GETS::total          427                       (Unspecified)
system.caches.L1Cache_Controller.IS.Inv  |           0      0.00%      0.00% |          44     13.97%     13.97% |          66     20.95%     34.92% |          70     22.22%     57.14% |          76     24.13%     81.27% |          27      8.57%     89.84% |           4      1.27%     91.11% |          28      8.89%    100.00% (Unspecified)
system.caches.L1Cache_Controller.IS.Inv::total          315                       (Unspecified)
system.caches.L1Cache_Controller.IS.Data_Exclusive |      325127     12.21%     12.21% |      339468     12.74%     24.95% |      323739     12.15%     37.10% |      334136     12.54%     49.65% |      340531     12.78%     62.43% |      328894     12.35%     74.78% |      339092     12.73%     87.51% |      332751     12.49%    100.00% (Unspecified)
system.caches.L1Cache_Controller.IS.Data_Exclusive::total      2663738                       (Unspecified)
system.caches.L1Cache_Controller.IS.DataS_fromL1 |          74      4.97%      4.97% |         813     54.56%     59.53% |         366     24.56%     84.09% |         115      7.72%     91.81% |          44      2.95%     94.77% |          48      3.22%     97.99% |          13      0.87%     98.86% |          17      1.14%    100.00% (Unspecified)
system.caches.L1Cache_Controller.IS.DataS_fromL1::total         1490                       (Unspecified)
system.caches.L1Cache_Controller.IS.Data_all_Acks |       13341     13.75%     13.75% |       11243     11.59%     25.34% |       11899     12.27%     37.61% |       12115     12.49%     50.10% |       12151     12.53%     62.63% |       12117     12.49%     75.12% |       12064     12.44%     87.56% |       12069     12.44%    100.00% (Unspecified)
system.caches.L1Cache_Controller.IS.Data_all_Acks::total        96999                       (Unspecified)
system.caches.L1Cache_Controller.IM.Data |          19    100.00%    100.00% |           0      0.00%    100.00% |           0      0.00%    100.00% |           0      0.00%    100.00% |           0      0.00%    100.00% |           0      0.00%    100.00% |           0      0.00%    100.00% |           0      0.00%    100.00% (Unspecified)
system.caches.L1Cache_Controller.IM.Data::total           19                       (Unspecified)
system.caches.L1Cache_Controller.IM.Data_all_Acks |      365176     12.49%     12.49% |      364567     12.46%     24.95% |      365535     12.50%     37.45% |      365748     12.51%     49.95% |      364367     12.46%     62.41% |      365826     12.51%     74.92% |      366396     12.53%     87.45% |      367142     12.55%    100.00% (Unspecified)
system.caches.L1Cache_Controller.IM.Data_all_Acks::total      2924757                       (Unspecified)
system.caches.L1Cache_Controller.SM.Ack  |        1139    100.00%    100.00% |           0      0.00%    100.00% |           0      0.00%    100.00% |           0      0.00%    100.00% |           0      0.00%    100.00% |           0      0.00%    100.00% |           0      0.00%    100.00% |           0      0.00%    100.00% (Unspecified)
system.caches.L1Cache_Controller.SM.Ack::total         1139                       (Unspecified)
system.caches.L1Cache_Controller.SM.Ack_all |         266    100.00%    100.00% |           0      0.00%    100.00% |           0      0.00%    100.00% |           0      0.00%    100.00% |           0      0.00%    100.00% |           0      0.00%    100.00% |           0      0.00%    100.00% |           0      0.00%    100.00% (Unspecified)
system.caches.L1Cache_Controller.SM.Ack_all::total          266                       (Unspecified)
system.caches.L1Cache_Controller.IS_I.Data_all_Acks |           0      0.00%      0.00% |          44     13.97%     13.97% |          66     20.95%     34.92% |          70     22.22%     57.14% |          76     24.13%     81.27% |          27      8.57%     89.84% |           4      1.27%     91.11% |          28      8.89%    100.00% (Unspecified)
system.caches.L1Cache_Controller.IS_I.Data_all_Acks::total          315                       (Unspecified)
system.caches.L1Cache_Controller.M_I.Inv |           0      0.00%      0.00% |           0      0.00%      0.00% |           0      0.00%      0.00% |           0      0.00%      0.00% |           0      0.00%      0.00% |           1     16.67%     16.67% |           0      0.00%     16.67% |           5     83.33%    100.00% (Unspecified)
system.caches.L1Cache_Controller.M_I.Inv::total            6                       (Unspecified)
system.caches.L1Cache_Controller.M_I.WB_Ack |      688805     12.40%     12.40% |      699130     12.59%     24.99% |      684726     12.33%     37.32% |      695209     12.52%     49.83% |      700357     12.61%     62.44% |      689814     12.42%     74.86% |      700912     12.62%     87.48% |      695368     12.52%    100.00% (Unspecified)
system.caches.L1Cache_Controller.M_I.WB_Ack::total      5554321                       (Unspecified)
system.caches.L1Cache_Controller.SINK_WB_ACK.WB_Ack |           0      0.00%      0.00% |           0      0.00%      0.00% |           0      0.00%      0.00% |           0      0.00%      0.00% |           0      0.00%      0.00% |           1     16.67%     16.67% |           0      0.00%     16.67% |           5     83.33%    100.00% (Unspecified)
system.caches.L1Cache_Controller.SINK_WB_ACK.WB_Ack::total            6                       (Unspecified)
system.caches.Directory_Controller.Fetch |       12686      0.23%      0.23% |     5587702     99.77%    100.00% (Unspecified)
system.caches.Directory_Controller.Fetch::total      5600388                       (Unspecified)
system.caches.Directory_Controller.Data  |         940      0.03%      0.03% |     2958936     99.97%    100.00% (Unspecified)
system.caches.Directory_Controller.Data::total      2959876                       (Unspecified)
system.caches.Directory_Controller.Memory_Data |       12686      0.23%      0.23% |     5587692     99.77%    100.00% (Unspecified)
system.caches.Directory_Controller.Memory_Data::total      5600378                       (Unspecified)
system.caches.Directory_Controller.Memory_Ack |         940      0.03%      0.03% |     2958935     99.97%    100.00% (Unspecified)
system.caches.Directory_Controller.Memory_Ack::total      2959875                       (Unspecified)
system.caches.Directory_Controller.CleanReplacement |       11891      0.45%      0.45% |     2628621     99.55%    100.00% (Unspecified)
system.caches.Directory_Controller.CleanReplacement::total      2640512                       (Unspecified)
system.caches.Directory_Controller.I.Fetch |       12686      0.23%      0.23% |     5587702     99.77%    100.00% (Unspecified)
system.caches.Directory_Controller.I.Fetch::total      5600388                       (Unspecified)
system.caches.Directory_Controller.M.Data |         940      0.03%      0.03% |     2958936     99.97%    100.00% (Unspecified)
system.caches.Directory_Controller.M.Data::total      2959876                       (Unspecified)
system.caches.Directory_Controller.M.CleanReplacement |       11891      0.45%      0.45% |     2628621     99.55%    100.00% (Unspecified)
system.caches.Directory_Controller.M.CleanReplacement::total      2640512                       (Unspecified)
system.caches.Directory_Controller.IM.Memory_Data |       12686      0.23%      0.23% |     5587692     99.77%    100.00% (Unspecified)
system.caches.Directory_Controller.IM.Memory_Data::total      5600378                       (Unspecified)
system.caches.Directory_Controller.MI.Memory_Ack |         940      0.03%      0.03% |     2958935     99.97%    100.00% (Unspecified)
system.caches.Directory_Controller.MI.Memory_Ack::total      2959875                       (Unspecified)
system.caches.L2Cache_Controller.L1_GET_INSTR |        9482     13.40%     13.40% |        9370     13.24%     26.64% |        8617     12.18%     38.82% |        5957      8.42%     47.24% |        8776     12.40%     59.64% |        9435     13.33%     72.97% |        9271     13.10%     86.07% |        9854     13.93%    100.00% (Unspecified)
system.caches.L2Cache_Controller.L1_GET_INSTR::total        70762                       (Unspecified)
system.caches.L2Cache_Controller.L1_GETS |      339619     12.61%     12.61% |      337361     12.52%     25.13% |      336475     12.49%     37.62% |      335797     12.46%     50.08% |      335578     12.46%     62.54% |      334717     12.42%     74.96% |      337509     12.53%     87.49% |      337066     12.51%    100.00% (Unspecified)
system.caches.L2Cache_Controller.L1_GETS::total      2694122                       (Unspecified)
system.caches.L2Cache_Controller.L1_GETX |      365954     12.51%     12.51% |      365420     12.49%     25.01% |      364462     12.46%     37.47% |      365229     12.49%     49.95% |      365459     12.50%     62.45% |      366749     12.54%     74.99% |      365623     12.50%     87.49% |      365889     12.51%    100.00% (Unspecified)
system.caches.L2Cache_Controller.L1_GETX::total      2924785                       (Unspecified)
system.caches.L2Cache_Controller.L1_UPGRADE |           0      0.00%      0.00% |          12      3.57%      3.57% |           0      0.00%      3.57% |           0      0.00%      3.57% |           0      0.00%      3.57% |           0      0.00%      3.57% |         324     96.43%    100.00% |           0      0.00%    100.00% (Unspecified)
system.caches.L2Cache_Controller.L1_UPGRADE::total          336                       (Unspecified)
system.caches.L2Cache_Controller.L1_PUTX |      694506     12.50%     12.50% |      694472     12.50%     25.01% |      692897     12.47%     37.48% |      693681     12.49%     49.97% |      694100     12.50%     62.47% |      695514     12.52%     74.99% |      694332     12.50%     87.49% |      694819     12.51%    100.00% (Unspecified)
system.caches.L2Cache_Controller.L1_PUTX::total      5554321                       (Unspecified)
system.caches.L2Cache_Controller.L1_PUTX_old |           4     33.33%     33.33% |           2     16.67%     50.00% |           0      0.00%     50.00% |           0      0.00%     50.00% |           2     16.67%     66.67% |           0      0.00%     66.67% |           2     16.67%     83.33% |           2     16.67%    100.00% (Unspecified)
system.caches.L2Cache_Controller.L1_PUTX_old::total           12                       (Unspecified)
system.caches.L2Cache_Controller.L2_Replacement |      369764     12.51%     12.51% |      369073     12.49%     25.00% |      368256     12.46%     37.46% |      369177     12.49%     49.95% |      368982     12.48%     62.43% |      370681     12.54%     74.97% |      369573     12.50%     87.47% |      370220     12.53%    100.00% (Unspecified)
system.caches.L2Cache_Controller.L2_Replacement::total      2955726                       (Unspecified)
system.caches.L2Cache_Controller.L2_Replacement_clean |      331103     12.52%     12.52% |      331411     12.53%     25.05% |      330081     12.48%     37.53% |      329851     12.47%     50.00% |      330808     12.51%     62.51% |      330481     12.50%     75.01% |      330334     12.49%     87.50% |      330593     12.50%    100.00% (Unspecified)
system.caches.L2Cache_Controller.L2_Replacement_clean::total      2644662                       (Unspecified)
system.caches.L2Cache_Controller.Mem_Data |      700866     12.51%     12.51% |      700483     12.51%     25.02% |      698336     12.47%     37.49% |      699028     12.48%     49.97% |      699789     12.50%     62.47% |      701160     12.52%     74.99% |      699905     12.50%     87.49% |      700811     12.51%    100.00% (Unspecified)
system.caches.L2Cache_Controller.Mem_Data::total      5600378                       (Unspecified)
system.caches.L2Cache_Controller.Mem_Ack |      700867     12.51%     12.51% |      700484     12.51%     25.02% |      698337     12.47%     37.49% |      699028     12.48%     49.97% |      699790     12.50%     62.47% |      701161     12.52%     74.99% |      699907     12.50%     87.49% |      700813     12.51%    100.00% (Unspecified)
system.caches.L2Cache_Controller.Mem_Ack::total      5600387                       (Unspecified)
system.caches.L2Cache_Controller.WB_Data |         712     15.54%     15.54% |         606     13.22%     28.76% |         286      6.24%     35.00% |         506     11.04%     46.04% |         501     10.93%     56.97% |         608     13.27%     70.24% |         821     17.91%     88.15% |         543     11.85%    100.00% (Unspecified)
system.caches.L2Cache_Controller.WB_Data::total         4583                       (Unspecified)
system.caches.L2Cache_Controller.WB_Data_clean |         279     26.15%     26.15% |         141     13.21%     39.36% |         174     16.31%     55.67% |         137     12.84%     68.51% |          78      7.31%     75.82% |          42      3.94%     79.76% |         154     14.43%     94.19% |          62      5.81%    100.00% (Unspecified)
system.caches.L2Cache_Controller.WB_Data_clean::total         1067                       (Unspecified)
system.caches.L2Cache_Controller.Ack     |       12526     15.42%     15.42% |       11070     13.63%     29.04% |       10652     13.11%     42.16% |        7733      9.52%     51.67% |        9775     12.03%     63.71% |        9301     11.45%     75.15% |        9193     11.32%     86.47% |       10993     13.53%    100.00% (Unspecified)
system.caches.L2Cache_Controller.Ack::total        81243                       (Unspecified)
system.caches.L2Cache_Controller.Ack_all |        2652     15.50%     15.50% |        2364     13.82%     29.32% |        2035     11.89%     41.21% |        1721     10.06%     51.27% |        2076     12.13%     63.41% |        1971     11.52%     74.93% |        1929     11.27%     86.20% |        2361     13.80%    100.00% (Unspecified)
system.caches.L2Cache_Controller.Ack_all::total        17109                       (Unspecified)
system.caches.L2Cache_Controller.Unblock |         374     25.10%     25.10% |         188     12.62%     37.72% |         174     11.68%     49.40% |         137      9.19%     58.59% |          78      5.23%     63.83% |          42      2.82%     66.64% |         436     29.26%     95.91% |          61      4.09%    100.00% (Unspecified)
system.caches.L2Cache_Controller.Unblock::total         1490                       (Unspecified)
system.caches.L2Cache_Controller.Exclusive_Unblock |      699269     12.51%     12.51% |      698872     12.50%     25.02% |      696734     12.47%     37.48% |      697906     12.49%     49.97% |      698295     12.49%     62.47% |      699787     12.52%     74.99% |      698884     12.51%     87.49% |      699013     12.51%    100.00% (Unspecified)
system.caches.L2Cache_Controller.Exclusive_Unblock::total      5588760                       (Unspecified)
system.caches.L2Cache_Controller.NP.L1_GET_INSTR |        1322     13.13%     13.13% |        1375     13.66%     26.79% |        1273     12.65%     39.44% |         902      8.96%     48.40% |        1261     12.53%     60.93% |        1264     12.56%     73.48% |        1256     12.48%     85.96% |        1413     14.04%    100.00% (Unspecified)
system.caches.L2Cache_Controller.NP.L1_GET_INSTR::total        10066                       (Unspecified)
system.caches.L2Cache_Controller.NP.L1_GETS |      333616     12.52%     12.52% |      333699     12.52%     25.03% |      332606     12.48%     37.51% |      332910     12.49%     50.00% |      333080     12.50%     62.49% |      333172     12.50%     74.99% |      333060     12.49%     87.49% |      333530     12.51%    100.00% (Unspecified)
system.caches.L2Cache_Controller.NP.L1_GETS::total      2665673                       (Unspecified)
system.caches.L2Cache_Controller.NP.L1_GETX |      365929     12.51%     12.51% |      365410     12.49%     25.01% |      364458     12.46%     37.47% |      365216     12.49%     49.96% |      365449     12.50%     62.45% |      366726     12.54%     74.99% |      365591     12.50%     87.49% |      365870     12.51%    100.00% (Unspecified)
system.caches.L2Cache_Controller.NP.L1_GETX::total      2924649                       (Unspecified)
system.caches.L2Cache_Controller.NP.L1_PUTX_old |           2     33.33%     33.33% |           1     16.67%     50.00% |           0      0.00%     50.00% |           0      0.00%     50.00% |           1     16.67%     66.67% |           0      0.00%     66.67% |           1     16.67%     83.33% |           1     16.67%    100.00% (Unspecified)
system.caches.L2Cache_Controller.NP.L1_PUTX_old::total            6                       (Unspecified)
system.caches.L2Cache_Controller.SS.L1_GET_INSTR |        4855     13.87%     13.87% |        4206     12.01%     25.88% |        4233     12.09%     37.97% |        2712      7.75%     45.72% |        4244     12.12%     57.84% |        4289     12.25%     70.09% |        4769     13.62%     83.72% |        5701     16.28%    100.00% (Unspecified)
system.caches.L2Cache_Controller.SS.L1_GET_INSTR::total        35009                       (Unspecified)
system.caches.L2Cache_Controller.SS.L1_GETS |        4337     23.93%     23.93% |        2121     11.70%     35.63% |        2579     14.23%     49.86% |        1989     10.97%     60.84% |        1786      9.85%     70.69% |         780      4.30%     74.99% |        1904     10.51%     85.50% |        2628     14.50%    100.00% (Unspecified)
system.caches.L2Cache_Controller.SS.L1_GETS::total        18124                       (Unspecified)
system.caches.L2Cache_Controller.SS.L1_GETX |          10     52.63%     52.63% |           0      0.00%     52.63% |           0      0.00%     52.63% |           0      0.00%     52.63% |           0      0.00%     52.63% |           0      0.00%     52.63% |           9     47.37%    100.00% |           0      0.00%    100.00% (Unspecified)
system.caches.L2Cache_Controller.SS.L1_GETX::total           19                       (Unspecified)
system.caches.L2Cache_Controller.SS.L1_UPGRADE |           0      0.00%      0.00% |          12      4.86%      4.86% |           0      0.00%      4.86% |           0      0.00%      4.86% |           0      0.00%      4.86% |           0      0.00%      4.86% |         235     95.14%    100.00% |           0      0.00%    100.00% (Unspecified)
system.caches.L2Cache_Controller.SS.L1_UPGRADE::total          247                       (Unspecified)
system.caches.L2Cache_Controller.SS.L2_Replacement |          94     50.00%     50.00% |          47     25.00%     75.00% |           0      0.00%     75.00% |           0      0.00%     75.00% |           0      0.00%     75.00% |           0      0.00%     75.00% |          47     25.00%    100.00% |           0      0.00%    100.00% (Unspecified)
system.caches.L2Cache_Controller.SS.L2_Replacement::total          188                       (Unspecified)
system.caches.L2Cache_Controller.SS.L2_Replacement_clean |        1963     14.51%     14.51% |        1835     13.57%     28.08% |        1836     13.57%     41.65% |        1331      9.84%     51.49% |        1634     12.08%     63.57% |        1509     11.16%     74.73% |        1478     10.93%     85.66% |        1940     14.34%    100.00% (Unspecified)
system.caches.L2Cache_Controller.SS.L2_Replacement_clean::total        13526                       (Unspecified)
system.caches.L2Cache_Controller.M.L1_GET_INSTR |          13     16.05%     16.05% |          12     14.81%     30.86% |          11     13.58%     44.44% |          10     12.35%     56.79% |           9     11.11%     67.90% |           8      9.88%     77.78% |           7      8.64%     86.42% |          11     13.58%    100.00% (Unspecified)
system.caches.L2Cache_Controller.M.L1_GET_INSTR::total           81                       (Unspecified)
system.caches.L2Cache_Controller.M.L1_GETS |          52     14.99%     14.99% |          53     15.27%     30.26% |          38     10.95%     41.21% |          41     11.82%     53.03% |          34      9.80%     62.82% |          51     14.70%     77.52% |          37     10.66%     88.18% |          41     11.82%    100.00% (Unspecified)
system.caches.L2Cache_Controller.M.L1_GETS::total          347                       (Unspecified)
system.caches.L2Cache_Controller.M.L1_GETX |          12     11.01%     11.01% |          10      9.17%     20.18% |           4      3.67%     23.85% |          13     11.93%     35.78% |          10      9.17%     44.95% |          23     21.10%     66.06% |          18     16.51%     82.57% |          19     17.43%    100.00% (Unspecified)
system.caches.L2Cache_Controller.M.L1_GETX::total          109                       (Unspecified)
system.caches.L2Cache_Controller.M.L2_Replacement |      369669     12.51%     12.51% |      369025     12.49%     24.99% |      368256     12.46%     37.45% |      369176     12.49%     49.94% |      368982     12.48%     62.43% |      370681     12.54%     74.97% |      369524     12.50%     87.47% |      370219     12.53%    100.00% (Unspecified)
system.caches.L2Cache_Controller.M.L2_Replacement::total      2955532                       (Unspecified)
system.caches.L2Cache_Controller.M.L2_Replacement_clean |      327929     12.50%     12.50% |      328536     12.52%     25.02% |      327760     12.49%     37.51% |      327625     12.49%     50.00% |      328231     12.51%     62.51% |      327902     12.50%     75.01% |      327915     12.50%     87.51% |      327689     12.49%    100.00% (Unspecified)
system.caches.L2Cache_Controller.M.L2_Replacement_clean::total      2623587                       (Unspecified)
system.caches.L2Cache_Controller.MT.L1_GETS |         374     25.10%     25.10% |         188     12.62%     37.72% |         174     11.68%     49.40% |         137      9.19%     58.59% |          78      5.23%     63.83% |          42      2.82%     66.64% |         436     29.26%     95.91% |          61      4.09%    100.00% (Unspecified)
system.caches.L2Cache_Controller.MT.L1_GETS::total         1490                       (Unspecified)
system.caches.L2Cache_Controller.MT.L1_GETX |           3     50.00%     50.00% |           0      0.00%     50.00% |           0      0.00%     50.00% |           0      0.00%     50.00% |           0      0.00%     50.00% |           0      0.00%     50.00% |           3     50.00%    100.00% |           0      0.00%    100.00% (Unspecified)
system.caches.L2Cache_Controller.MT.L1_GETX::total            6                       (Unspecified)
system.caches.L2Cache_Controller.MT.L1_PUTX |      694506     12.50%     12.50% |      694472     12.50%     25.01% |      692897     12.47%     37.48% |      693681     12.49%     49.97% |      694100     12.50%     62.47% |      695514     12.52%     74.99% |      694332     12.50%     87.49% |      694819     12.51%    100.00% (Unspecified)
system.caches.L2Cache_Controller.MT.L1_PUTX::total      5554321                       (Unspecified)
system.caches.L2Cache_Controller.MT.L2_Replacement |           1     16.67%     16.67% |           1     16.67%     33.33% |           0      0.00%     33.33% |           1     16.67%     50.00% |           0      0.00%     50.00% |           0      0.00%     50.00% |           2     33.33%     83.33% |           1     16.67%    100.00% (Unspecified)
system.caches.L2Cache_Controller.MT.L2_Replacement::total            6                       (Unspecified)
system.caches.L2Cache_Controller.MT.L2_Replacement_clean |        1211     16.04%     16.04% |        1040     13.78%     29.82% |         485      6.42%     36.24% |         895     11.86%     48.10% |         943     12.49%     60.59% |        1070     14.17%     74.76% |         941     12.47%     87.23% |         964     12.77%    100.00% (Unspecified)
system.caches.L2Cache_Controller.MT.L2_Replacement_clean::total         7549                       (Unspecified)
system.caches.L2Cache_Controller.M_I.L1_GET_INSTR |          12     15.79%     15.79% |          10     13.16%     28.95% |           0      0.00%     28.95% |           0      0.00%     28.95% |           0      0.00%     28.95% |           9     11.84%     40.79% |          28     36.84%     77.63% |          17     22.37%    100.00% (Unspecified)
system.caches.L2Cache_Controller.M_I.L1_GET_INSTR::total           76                       (Unspecified)
system.caches.L2Cache_Controller.M_I.Mem_Ack |      700867     12.51%     12.51% |      700484     12.51%     25.02% |      698337     12.47%     37.49% |      699028     12.48%     49.97% |      699790     12.50%     62.47% |      701161     12.52%     74.99% |      699907     12.50%     87.49% |      700813     12.51%    100.00% (Unspecified)
system.caches.L2Cache_Controller.M_I.Mem_Ack::total      5600387                       (Unspecified)
system.caches.L2Cache_Controller.MT_I.WB_Data |           1     16.67%     16.67% |           1     16.67%     33.33% |           0      0.00%     33.33% |           1     16.67%     50.00% |           0      0.00%     50.00% |           0      0.00%     50.00% |           2     33.33%     83.33% |           1     16.67%    100.00% (Unspecified)
system.caches.L2Cache_Controller.MT_I.WB_Data::total            6                       (Unspecified)
system.caches.L2Cache_Controller.MCT_I.L1_PUTX_old |           2     33.33%     33.33% |           1     16.67%     50.00% |           0      0.00%     50.00% |           0      0.00%     50.00% |           1     16.67%     66.67% |           0      0.00%     66.67% |           1     16.67%     83.33% |           1     16.67%    100.00% (Unspecified)
system.caches.L2Cache_Controller.MCT_I.L1_PUTX_old::total            6                       (Unspecified)
system.caches.L2Cache_Controller.MCT_I.WB_Data |         615     14.82%     14.82% |         557     13.42%     28.24% |         286      6.89%     35.13% |         505     12.17%     47.30% |         501     12.07%     59.37% |         608     14.65%     74.02% |         536     12.92%     86.94% |         542     13.06%    100.00% (Unspecified)
system.caches.L2Cache_Controller.MCT_I.WB_Data::total         4150                       (Unspecified)
system.caches.L2Cache_Controller.MCT_I.WB_Data_clean |           1     25.00%     25.00% |           1     25.00%     50.00% |           0      0.00%     50.00% |           0      0.00%     50.00% |           0      0.00%     50.00% |           0      0.00%     50.00% |           1     25.00%     75.00% |           1     25.00%    100.00% (Unspecified)
system.caches.L2Cache_Controller.MCT_I.WB_Data_clean::total            4                       (Unspecified)
system.caches.L2Cache_Controller.MCT_I.Ack_all |         595     17.53%     17.53% |         482     14.20%     31.72% |         199      5.86%     37.58% |         390     11.49%     49.07% |         442     13.02%     62.09% |         462     13.61%     75.70% |         404     11.90%     87.60% |         421     12.40%    100.00% (Unspecified)
system.caches.L2Cache_Controller.MCT_I.Ack_all::total         3395                       (Unspecified)
system.caches.L2Cache_Controller.I_I.Ack |       11874     14.85%     14.85% |       10747     13.44%     28.30% |       10652     13.33%     41.62% |        7733      9.67%     51.30% |        9775     12.23%     63.52% |        9301     11.64%     75.16% |        8864     11.09%     86.25% |       10993     13.75%    100.00% (Unspecified)
system.caches.L2Cache_Controller.I_I.Ack::total        79939                       (Unspecified)
system.caches.L2Cache_Controller.I_I.Ack_all |        1963     14.51%     14.51% |        1835     13.57%     28.08% |        1836     13.57%     41.65% |        1331      9.84%     51.49% |        1634     12.08%     63.57% |        1509     11.16%     74.73% |        1478     10.93%     85.66% |        1940     14.34%    100.00% (Unspecified)
system.caches.L2Cache_Controller.I_I.Ack_all::total        13526                       (Unspecified)
system.caches.L2Cache_Controller.S_I.Ack |         652     50.00%     50.00% |         323     24.77%     74.77% |           0      0.00%     74.77% |           0      0.00%     74.77% |           0      0.00%     74.77% |           0      0.00%     74.77% |         329     25.23%    100.00% |           0      0.00%    100.00% (Unspecified)
system.caches.L2Cache_Controller.S_I.Ack::total         1304                       (Unspecified)
system.caches.L2Cache_Controller.S_I.Ack_all |          94     50.00%     50.00% |          47     25.00%     75.00% |           0      0.00%     75.00% |           0      0.00%     75.00% |           0      0.00%     75.00% |           0      0.00%     75.00% |          47     25.00%    100.00% |           0      0.00%    100.00% (Unspecified)
system.caches.L2Cache_Controller.S_I.Ack_all::total          188                       (Unspecified)
system.caches.L2Cache_Controller.ISS.L1_GETS |         352     15.45%     15.45% |         311     13.65%     29.09% |         371     16.28%     45.37% |         274     12.02%     57.39% |         277     12.15%     69.55% |         182      7.99%     77.53% |          67      2.94%     80.47% |         445     19.53%    100.00% (Unspecified)
system.caches.L2Cache_Controller.ISS.L1_GETS::total         2279                       (Unspecified)
system.caches.L2Cache_Controller.ISS.L1_GETX |           0      0.00%      0.00% |           0      0.00%      0.00% |           0      0.00%      0.00% |           0      0.00%      0.00% |           0      0.00%      0.00% |           0      0.00%      0.00% |           2    100.00%    100.00% |           0      0.00%    100.00% (Unspecified)
system.caches.L2Cache_Controller.ISS.L1_GETX::total            2                       (Unspecified)
system.caches.L2Cache_Controller.ISS.Mem_Data |      333264     12.51%     12.51% |      333387     12.52%     25.03% |      332235     12.47%     37.50% |      332636     12.49%     49.99% |      332803     12.50%     62.49% |      332989     12.50%     74.99% |      332992     12.50%     87.49% |      333085     12.51%    100.00% (Unspecified)
system.caches.L2Cache_Controller.ISS.Mem_Data::total      2663391                       (Unspecified)
system.caches.L2Cache_Controller.IS.L1_GET_INSTR |        3280     12.85%     12.85% |        3767     14.76%     27.60% |        3100     12.14%     39.75% |        2333      9.14%     48.88% |        3262     12.78%     61.66% |        3865     15.14%     76.80% |        3211     12.58%     89.38% |        2712     10.62%    100.00% (Unspecified)
system.caches.L2Cache_Controller.IS.L1_GET_INSTR::total        25530                       (Unspecified)
system.caches.L2Cache_Controller.IS.L1_GETS |         728     18.45%     18.45% |         822     20.83%     39.28% |         678     17.18%     56.46% |         436     11.05%     67.51% |         317      8.03%     75.54% |         475     12.04%     87.58% |         140      3.55%     91.13% |         350      8.87%    100.00% (Unspecified)
system.caches.L2Cache_Controller.IS.L1_GETS::total         3946                       (Unspecified)
system.caches.L2Cache_Controller.IS.Mem_Data |        1674     13.56%     13.56% |        1686     13.66%     27.22% |        1644     13.32%     40.53% |        1176      9.53%     50.06% |        1538     12.46%     62.52% |        1446     11.71%     74.23% |        1323     10.72%     84.95% |        1858     15.05%    100.00% (Unspecified)
system.caches.L2Cache_Controller.IS.Mem_Data::total        12345                       (Unspecified)
system.caches.L2Cache_Controller.IM.Mem_Data |      365928     12.51%     12.51% |      365410     12.49%     25.01% |      364457     12.46%     37.47% |      365216     12.49%     49.96% |      365448     12.50%     62.45% |      366725     12.54%     74.99% |      365590     12.50%     87.49% |      365868     12.51%    100.00% (Unspecified)
system.caches.L2Cache_Controller.IM.Mem_Data::total      2924642                       (Unspecified)
system.caches.L2Cache_Controller.SS_MB.L1_GETS |           0      0.00%      0.00% |           0      0.00%      0.00% |           0      0.00%      0.00% |           0      0.00%      0.00% |           0      0.00%      0.00% |           0      0.00%      0.00% |         832    100.00%    100.00% |           0      0.00%    100.00% (Unspecified)
system.caches.L2Cache_Controller.SS_MB.L1_GETS::total          832                       (Unspecified)
system.caches.L2Cache_Controller.SS_MB.Exclusive_Unblock |          10      3.76%      3.76% |          12      4.51%      8.27% |           0      0.00%      8.27% |           0      0.00%      8.27% |           0      0.00%      8.27% |           0      0.00%      8.27% |         244     91.73%    100.00% |           0      0.00%    100.00% (Unspecified)
system.caches.L2Cache_Controller.SS_MB.Exclusive_Unblock::total          266                       (Unspecified)
system.caches.L2Cache_Controller.MT_MB.L1_GETS |           1      5.00%      5.00% |           0      0.00%      5.00% |           8     40.00%     45.00% |           3     15.00%     60.00% |           0      0.00%     60.00% |           6     30.00%     90.00% |           0      0.00%     90.00% |           2     10.00%    100.00% (Unspecified)
system.caches.L2Cache_Controller.MT_MB.L1_GETS::total           20                       (Unspecified)
system.caches.L2Cache_Controller.MT_MB.Exclusive_Unblock |      699259     12.51%     12.51% |      698860     12.51%     25.02% |      696734     12.47%     37.49% |      697906     12.49%     49.97% |      698295     12.50%     62.47% |      699787     12.52%     74.99% |      698640     12.50%     87.49% |      699013     12.51%    100.00% (Unspecified)
system.caches.L2Cache_Controller.MT_MB.Exclusive_Unblock::total      5588494                       (Unspecified)
system.caches.L2Cache_Controller.MT_IIB.L1_GETS |         148     10.69%     10.69% |         156     11.26%     21.95% |          21      1.52%     23.47% |           7      0.51%     23.97% |           5      0.36%     24.33% |           9      0.65%     24.98% |        1030     74.37%     99.35% |           9      0.65%    100.00% (Unspecified)
system.caches.L2Cache_Controller.MT_IIB.L1_GETS::total         1385                       (Unspecified)
system.caches.L2Cache_Controller.MT_IIB.WB_Data |          96     22.48%     22.48% |          48     11.24%     33.72% |           0      0.00%     33.72% |           0      0.00%     33.72% |           0      0.00%     33.72% |           0      0.00%     33.72% |         283     66.28%    100.00% |           0      0.00%    100.00% (Unspecified)
system.caches.L2Cache_Controller.MT_IIB.WB_Data::total          427                       (Unspecified)
system.caches.L2Cache_Controller.MT_IIB.WB_Data_clean |         278     26.15%     26.15% |         140     13.17%     39.32% |         174     16.37%     55.69% |         137     12.89%     68.58% |          78      7.34%     75.92% |          42      3.95%     79.87% |         153     14.39%     94.26% |          61      5.74%    100.00% (Unspecified)
system.caches.L2Cache_Controller.MT_IIB.WB_Data_clean::total         1063                       (Unspecified)
system.caches.L2Cache_Controller.MT_SB.L1_GETS |          11     42.31%     42.31% |          11     42.31%     84.62% |           0      0.00%     84.62% |           0      0.00%     84.62% |           1      3.85%     88.46% |           0      0.00%     88.46% |           3     11.54%    100.00% |           0      0.00%    100.00% (Unspecified)
system.caches.L2Cache_Controller.MT_SB.L1_GETS::total           26                       (Unspecified)
system.caches.L2Cache_Controller.MT_SB.L1_UPGRADE |           0      0.00%      0.00% |           0      0.00%      0.00% |           0      0.00%      0.00% |           0      0.00%      0.00% |           0      0.00%      0.00% |           0      0.00%      0.00% |          89    100.00%    100.00% |           0      0.00%    100.00% (Unspecified)
system.caches.L2Cache_Controller.MT_SB.L1_UPGRADE::total           89                       (Unspecified)
system.caches.L2Cache_Controller.MT_SB.Unblock |         374     25.10%     25.10% |         188     12.62%     37.72% |         174     11.68%     49.40% |         137      9.19%     58.59% |          78      5.23%     63.83% |          42      2.82%     66.64% |         436     29.26%     95.91% |          61      4.09%    100.00% (Unspecified)
system.caches.L2Cache_Controller.MT_SB.Unblock::total         1490                       (Unspecified)
system.caches.RequestType.LD.latency_hist_seqr::bucket_size          512                       (Unspecified)
system.caches.RequestType.LD.latency_hist_seqr::max_bucket         5119                       (Unspecified)
system.caches.RequestType.LD.latency_hist_seqr::samples      7481837                       (Unspecified)
system.caches.RequestType.LD.latency_hist_seqr::mean   214.360564                       (Unspecified)
system.caches.RequestType.LD.latency_hist_seqr::gmean     9.616534                       (Unspecified)
system.caches.RequestType.LD.latency_hist_seqr::stdev   339.519142                       (Unspecified)
system.caches.RequestType.LD.latency_hist_seqr |     6097637     81.50%     81.50% |     1275332     17.05%     98.54% |       62886      0.84%     99.39% |        5915      0.08%     99.46% |       24126      0.32%     99.79% |       15001      0.20%     99.99% |         831      0.01%    100.00% |          88      0.00%    100.00% |          21      0.00%    100.00% |           0      0.00%    100.00% (Unspecified)
system.caches.RequestType.LD.latency_hist_seqr::total      7481837                       (Unspecified)
system.caches.RequestType.LD.hit_latency_hist_seqr::bucket_size            1                       (Unspecified)
system.caches.RequestType.LD.hit_latency_hist_seqr::max_bucket            9                       (Unspecified)
system.caches.RequestType.LD.hit_latency_hist_seqr::samples      4789981                       (Unspecified)
system.caches.RequestType.LD.hit_latency_hist_seqr::mean     1.000081                       (Unspecified)
system.caches.RequestType.LD.hit_latency_hist_seqr::gmean     1.000056                       (Unspecified)
system.caches.RequestType.LD.hit_latency_hist_seqr::stdev     0.008977                       (Unspecified)
system.caches.RequestType.LD.hit_latency_hist_seqr |           0      0.00%      0.00% |     4789595     99.99%     99.99% |         386      0.01%    100.00% |           0      0.00%    100.00% |           0      0.00%    100.00% |           0      0.00%    100.00% |           0      0.00%    100.00% |           0      0.00%    100.00% |           0      0.00%    100.00% |           0      0.00%    100.00% (Unspecified)
system.caches.RequestType.LD.hit_latency_hist_seqr::total      4789981                       (Unspecified)
system.caches.RequestType.LD.miss_latency_hist_seqr::bucket_size          512                       (Unspecified)
system.caches.RequestType.LD.miss_latency_hist_seqr::max_bucket         5119                       (Unspecified)
system.caches.RequestType.LD.miss_latency_hist_seqr::samples      2691856                       (Unspecified)
system.caches.RequestType.LD.miss_latency_hist_seqr::mean   594.021534                       (Unspecified)
system.caches.RequestType.LD.miss_latency_hist_seqr::gmean   539.749750                       (Unspecified)
system.caches.RequestType.LD.miss_latency_hist_seqr::stdev   308.621638                       (Unspecified)
system.caches.RequestType.LD.miss_latency_hist_seqr |     1307656     48.58%     48.58% |     1275332     47.38%     95.96% |       62886      2.34%     98.29% |        5915      0.22%     98.51% |       24126      0.90%     99.41% |       15001      0.56%     99.97% |         831      0.03%    100.00% |          88      0.00%    100.00% |          21      0.00%    100.00% |           0      0.00%    100.00% (Unspecified)
system.caches.RequestType.LD.miss_latency_hist_seqr::total      2691856                       (Unspecified)
system.caches.RequestType.ST.latency_hist_seqr::bucket_size          512                       (Unspecified)
system.caches.RequestType.ST.latency_hist_seqr::max_bucket         5119                       (Unspecified)
system.caches.RequestType.ST.latency_hist_seqr::samples     23305274                       (Unspecified)
system.caches.RequestType.ST.latency_hist_seqr::mean    78.312127                       (Unspecified)
system.caches.RequestType.ST.latency_hist_seqr::gmean     2.221068                       (Unspecified)
system.caches.RequestType.ST.latency_hist_seqr::stdev   231.782509                       (Unspecified)
system.caches.RequestType.ST.latency_hist_seqr |    21757967     93.36%     93.36% |     1434531      6.16%     99.52% |       63463      0.27%     99.79% |        4269      0.02%     99.81% |       25844      0.11%     99.92% |       18492      0.08%    100.00% |         658      0.00%    100.00% |          44      0.00%    100.00% |           6      0.00%    100.00% |           0      0.00%    100.00% (Unspecified)
system.caches.RequestType.ST.latency_hist_seqr::total     23305274                       (Unspecified)
system.caches.RequestType.ST.hit_latency_hist_seqr::bucket_size           64                       (Unspecified)
system.caches.RequestType.ST.hit_latency_hist_seqr::max_bucket          639                       (Unspecified)
system.caches.RequestType.ST.hit_latency_hist_seqr::samples     20385651                       (Unspecified)
system.caches.RequestType.ST.hit_latency_hist_seqr::mean     1.004244                       (Unspecified)
system.caches.RequestType.ST.hit_latency_hist_seqr::gmean     1.002878                       (Unspecified)
system.caches.RequestType.ST.hit_latency_hist_seqr::stdev     0.167917                       (Unspecified)
system.caches.RequestType.ST.hit_latency_hist_seqr |    20385642    100.00%    100.00% |           3      0.00%    100.00% |           1      0.00%    100.00% |           3      0.00%    100.00% |           1      0.00%    100.00% |           0      0.00%    100.00% |           0      0.00%    100.00% |           1      0.00%    100.00% |           0      0.00%    100.00% |           0      0.00%    100.00% (Unspecified)
system.caches.RequestType.ST.hit_latency_hist_seqr::total     20385651                       (Unspecified)
system.caches.RequestType.ST.miss_latency_hist_seqr::bucket_size          512                       (Unspecified)
system.caches.RequestType.ST.miss_latency_hist_seqr::max_bucket         5119                       (Unspecified)
system.caches.RequestType.ST.miss_latency_hist_seqr::samples      2919623                       (Unspecified)
system.caches.RequestType.ST.miss_latency_hist_seqr::mean   618.098094                       (Unspecified)
system.caches.RequestType.ST.miss_latency_hist_seqr::gmean   572.325092                       (Unspecified)
system.caches.RequestType.ST.miss_latency_hist_seqr::stdev   309.410356                       (Unspecified)
system.caches.RequestType.ST.miss_latency_hist_seqr |     1372316     47.00%     47.00% |     1434531     49.13%     96.14% |       63463      2.17%     98.31% |        4269      0.15%     98.46% |       25844      0.89%     99.34% |       18492      0.63%     99.98% |         658      0.02%    100.00% |          44      0.00%    100.00% |           6      0.00%    100.00% |           0      0.00%    100.00% (Unspecified)
system.caches.RequestType.ST.miss_latency_hist_seqr::total      2919623                       (Unspecified)
system.caches.RequestType.IFETCH.latency_hist_seqr::bucket_size          512                       (Unspecified)
system.caches.RequestType.IFETCH.latency_hist_seqr::max_bucket         5119                       (Unspecified)
system.caches.RequestType.IFETCH.latency_hist_seqr::samples     12542226                       (Unspecified)
system.caches.RequestType.IFETCH.latency_hist_seqr::mean     1.770945                       (Unspecified)
system.caches.RequestType.IFETCH.latency_hist_seqr::gmean     1.022988                       (Unspecified)
system.caches.RequestType.IFETCH.latency_hist_seqr::stdev    16.124252                       (Unspecified)
system.caches.RequestType.IFETCH.latency_hist_seqr |    12541128     99.99%     99.99% |         822      0.01%    100.00% |         117      0.00%    100.00% |         121      0.00%    100.00% |          24      0.00%    100.00% |          13      0.00%    100.00% |           1      0.00%    100.00% |           0      0.00%    100.00% |           0      0.00%    100.00% |           0      0.00%    100.00% (Unspecified)
system.caches.RequestType.IFETCH.latency_hist_seqr::total     12542226                       (Unspecified)
system.caches.RequestType.IFETCH.hit_latency_hist_seqr::bucket_size            1                       (Unspecified)
system.caches.RequestType.IFETCH.hit_latency_hist_seqr::max_bucket            9                       (Unspecified)
system.caches.RequestType.IFETCH.hit_latency_hist_seqr::samples     12471540                       (Unspecified)
system.caches.RequestType.IFETCH.hit_latency_hist_seqr::mean            1                       (Unspecified)
system.caches.RequestType.IFETCH.hit_latency_hist_seqr::gmean            1                       (Unspecified)
system.caches.RequestType.IFETCH.hit_latency_hist_seqr |           0      0.00%      0.00% |    12471540    100.00%    100.00% |           0      0.00%    100.00% |           0      0.00%    100.00% |           0      0.00%    100.00% |           0      0.00%    100.00% |           0      0.00%    100.00% |           0      0.00%    100.00% |           0      0.00%    100.00% |           0      0.00%    100.00% (Unspecified)
system.caches.RequestType.IFETCH.hit_latency_hist_seqr::total     12471540                       (Unspecified)
system.caches.RequestType.IFETCH.miss_latency_hist_seqr::bucket_size          512                       (Unspecified)
system.caches.RequestType.IFETCH.miss_latency_hist_seqr::max_bucket         5119                       (Unspecified)
system.caches.RequestType.IFETCH.miss_latency_hist_seqr::samples        70686                       (Unspecified)
system.caches.RequestType.IFETCH.miss_latency_hist_seqr::mean   137.793269                       (Unspecified)
system.caches.RequestType.IFETCH.miss_latency_hist_seqr::gmean    56.411175                       (Unspecified)
system.caches.RequestType.IFETCH.miss_latency_hist_seqr::stdev   165.907344                       (Unspecified)
system.caches.RequestType.IFETCH.miss_latency_hist_seqr |       69588     98.45%     98.45% |         822      1.16%     99.61% |         117      0.17%     99.78% |         121      0.17%     99.95% |          24      0.03%     99.98% |          13      0.02%    100.00% |           1      0.00%    100.00% |           0      0.00%    100.00% |           0      0.00%    100.00% |           0      0.00%    100.00% (Unspecified)
system.caches.RequestType.IFETCH.miss_latency_hist_seqr::total        70686                       (Unspecified)
system.caches.RequestType.RMW_Read.latency_hist_seqr::bucket_size          512                       (Unspecified)
system.caches.RequestType.RMW_Read.latency_hist_seqr::max_bucket         5119                       (Unspecified)
system.caches.RequestType.RMW_Read.latency_hist_seqr::samples        13772                       (Unspecified)
system.caches.RequestType.RMW_Read.latency_hist_seqr::mean   282.832994                       (Unspecified)
system.caches.RequestType.RMW_Read.latency_hist_seqr::gmean    10.788955                       (Unspecified)
system.caches.RequestType.RMW_Read.latency_hist_seqr::stdev   506.463719                       (Unspecified)
system.caches.RequestType.RMW_Read.latency_hist_seqr |       10827     78.62%     78.62% |        1694     12.30%     90.92% |         706      5.13%     96.04% |         389      2.82%     98.87% |          84      0.61%     99.48% |          35      0.25%     99.73% |          30      0.22%     99.95% |           5      0.04%     99.99% |           2      0.01%    100.00% |           0      0.00%    100.00% (Unspecified)
system.caches.RequestType.RMW_Read.latency_hist_seqr::total        13772                       (Unspecified)
system.caches.RequestType.RMW_Read.hit_latency_hist_seqr::bucket_size          512                       (Unspecified)
system.caches.RequestType.RMW_Read.hit_latency_hist_seqr::max_bucket         5119                       (Unspecified)
system.caches.RequestType.RMW_Read.hit_latency_hist_seqr::samples         9236                       (Unspecified)
system.caches.RequestType.RMW_Read.hit_latency_hist_seqr::mean    27.449978                       (Unspecified)
system.caches.RequestType.RMW_Read.hit_latency_hist_seqr::gmean     1.511720                       (Unspecified)
system.caches.RequestType.RMW_Read.hit_latency_hist_seqr::stdev   136.663771                       (Unspecified)
system.caches.RequestType.RMW_Read.hit_latency_hist_seqr |        9067     98.17%     98.17% |         148      1.60%     99.77% |          11      0.12%     99.89% |           4      0.04%     99.94% |           3      0.03%     99.97% |           3      0.03%    100.00% |           0      0.00%    100.00% |           0      0.00%    100.00% |           0      0.00%    100.00% |           0      0.00%    100.00% (Unspecified)
system.caches.RequestType.RMW_Read.hit_latency_hist_seqr::total         9236                       (Unspecified)
system.caches.RequestType.RMW_Read.miss_latency_hist_seqr::bucket_size          512                       (Unspecified)
system.caches.RequestType.RMW_Read.miss_latency_hist_seqr::max_bucket         5119                       (Unspecified)
system.caches.RequestType.RMW_Read.miss_latency_hist_seqr::samples         4536                       (Unspecified)
system.caches.RequestType.RMW_Read.miss_latency_hist_seqr::mean   802.832451                       (Unspecified)
system.caches.RequestType.RMW_Read.miss_latency_hist_seqr::gmean   590.002835                       (Unspecified)
system.caches.RequestType.RMW_Read.miss_latency_hist_seqr::stdev   581.020471                       (Unspecified)
system.caches.RequestType.RMW_Read.miss_latency_hist_seqr |        1760     38.80%     38.80% |        1546     34.08%     72.88% |         695     15.32%     88.21% |         385      8.49%     96.69% |          81      1.79%     98.48% |          32      0.71%     99.18% |          30      0.66%     99.85% |           5      0.11%     99.96% |           2      0.04%    100.00% |           0      0.00%    100.00% (Unspecified)
system.caches.RequestType.RMW_Read.miss_latency_hist_seqr::total         4536                       (Unspecified)
system.caches.RequestType.Locked_RMW_Read.latency_hist_seqr::bucket_size          512                       (Unspecified)
system.caches.RequestType.Locked_RMW_Read.latency_hist_seqr::max_bucket         5119                       (Unspecified)
system.caches.RequestType.Locked_RMW_Read.latency_hist_seqr::samples         2784                       (Unspecified)
system.caches.RequestType.Locked_RMW_Read.latency_hist_seqr::mean   372.026940                       (Unspecified)
system.caches.RequestType.Locked_RMW_Read.latency_hist_seqr::gmean     8.082120                       (Unspecified)
system.caches.RequestType.Locked_RMW_Read.latency_hist_seqr::stdev   693.423619                       (Unspecified)
system.caches.RequestType.Locked_RMW_Read.latency_hist_seqr |        2110     75.79%     75.79% |         198      7.11%     82.90% |         102      3.66%     86.57% |         316     11.35%     97.92% |          39      1.40%     99.32% |           1      0.04%     99.35% |          13      0.47%     99.82% |           5      0.18%    100.00% |           0      0.00%    100.00% |           0      0.00%    100.00% (Unspecified)
system.caches.RequestType.Locked_RMW_Read.latency_hist_seqr::total         2784                       (Unspecified)
system.caches.RequestType.Locked_RMW_Read.hit_latency_hist_seqr::bucket_size            1                       (Unspecified)
system.caches.RequestType.Locked_RMW_Read.hit_latency_hist_seqr::max_bucket            9                       (Unspecified)
system.caches.RequestType.Locked_RMW_Read.hit_latency_hist_seqr::samples         1920                       (Unspecified)
system.caches.RequestType.Locked_RMW_Read.hit_latency_hist_seqr::mean            1                       (Unspecified)
[...]
system.o3Cpu7.iew.squashCycles                   4605                       # Number of cycles IEW is squashing (Cycle)
system.o3Cpu7.iew.blockCycles                21968513                       # Number of cycles IEW is blocking (Cycle)
system.o3Cpu7.iew.unblockCycles              74142672                       # Number of cycles IEW is unblocking (Cycle)
system.o3Cpu7.iew.dispatchedInsts            13143825                       # Number of instructions dispatched to IQ (Count)
system.o3Cpu7.iew.dispSquashedInsts              1989                       # Number of squashed instructions skipped by dispatch (Count)
system.o3Cpu7.iew.dispLoadInsts               2672796                       # Number of dispatched load instructions (Count)
system.o3Cpu7.iew.dispStoreInsts              2926900                       # Number of dispatched store instructions (Count)
system.o3Cpu7.iew.dispNonSpecInsts               1837                       # Number of dispatched non-speculative instructions (Count)
system.o3Cpu7.iew.iqFullEvents                  36538                       # Number of times the IQ has become full, causing a stall (Count)
system.o3Cpu7.iew.lsqFullEvents              74027407                       # Number of times the LSQ has become full, causing a stall (Count)
system.o3Cpu7.iew.memOrderViolationEvents          209                       # Number of memory order violations (Count)
system.o3Cpu7.iew.predictedTakenIncorrect         3687                       # Number of branches that were predicted taken incorrectly (Count)
system.o3Cpu7.iew.predictedNotTakenIncorrect          701                       # Number of branches that were predicted not taken incorrectly (Count)
system.o3Cpu7.iew.branchMispredicts              4388                       # Number of branch mispredicts detected at execute (Count)
system.o3Cpu7.iew.instsToCommit              13124135                       # Cumulative count of insts sent to commit (Count)
system.o3Cpu7.iew.writebackCount             13122421                       # Cumulative count of insts written-back (Count)
system.o3Cpu7.iew.producerInst                6399708                       # Number of instructions producing a value (Count)
system.o3Cpu7.iew.consumerInst               11383236                       # Number of instructions consuming a value (Count)
system.o3Cpu7.iew.wbRate                     0.055742                       # Insts written-back per cycle ((Count/Cycle))
system.o3Cpu7.iew.wbFanout                   0.562205                       # Average fanout of values written-back ((Count/Count))
system.o3Cpu7.interrupts.clk_domain.clock         3200                       # Clock period in ticks (Tick)
system.o3Cpu7.lsq0.forwLoads                     4232                       # Number of loads that had data forwarded from stores (Count)
system.o3Cpu7.lsq0.squashedLoads                 7671                       # Number of loads squashed (Count)
system.o3Cpu7.lsq0.ignoredResponses                 3                       # Number of memory responses ignored because the instruction is squashed (Count)
system.o3Cpu7.lsq0.memOrderViolation              209                       # Number of memory ordering violations (Count)
system.o3Cpu7.lsq0.squashedStores                1685                       # Number of stores squashed (Count)
system.o3Cpu7.lsq0.rescheduledLoads                45                       # Number of loads that were rescheduled (Count)
system.o3Cpu7.lsq0.blockedByCache               50900                       # Number of times an access to memory failed due to the cache being blocked (Count)
system.o3Cpu7.lsq0.loadToUse::samples         2665125                       # Distribution of cycle latency between the first time a load is issued and its completion (Unspecified)
system.o3Cpu7.lsq0.loadToUse::mean         382.752962                       # Distribution of cycle latency between the first time a load is issued and its completion (Unspecified)
system.o3Cpu7.lsq0.loadToUse::stdev        378.044960                       # Distribution of cycle latency between the first time a load is issued and its completion (Unspecified)
system.o3Cpu7.lsq0.loadToUse::0-9              817157     30.66%     30.66% # Distribution of cycle latency between the first time a load is issued and its completion (Unspecified)
system.o3Cpu7.lsq0.loadToUse::10-19             17347      0.65%     31.31% # Distribution of cycle latency between the first time a load is issued and its completion (Unspecified)
system.o3Cpu7.lsq0.loadToUse::20-29             17737      0.67%     31.98% # Distribution of cycle latency between the first time a load is issued and its completion (Unspecified)
system.o3Cpu7.lsq0.loadToUse::30-39             15281      0.57%     32.55% # Distribution of cycle latency between the first time a load is issued and its completion (Unspecified)
system.o3Cpu7.lsq0.loadToUse::40-49             13522      0.51%     33.06% # Distribution of cycle latency between the first time a load is issued and its completion (Unspecified)
system.o3Cpu7.lsq0.loadToUse::50-59             12250      0.46%     33.52% # Distribution of cycle latency between the first time a load is issued and its completion (Unspecified)
system.o3Cpu7.lsq0.loadToUse::60-69             10892      0.41%     33.93% # Distribution of cycle latency between the first time a load is issued and its completion (Unspecified)
system.o3Cpu7.lsq0.loadToUse::70-79             10512      0.39%     34.32% # Distribution of cycle latency between the first time a load is issued and its completion (Unspecified)
system.o3Cpu7.lsq0.loadToUse::80-89             10117      0.38%     34.70% # Distribution of cycle latency between the first time a load is issued and its completion (Unspecified)
system.o3Cpu7.lsq0.loadToUse::90-99              8778      0.33%     35.03% # Distribution of cycle latency between the first time a load is issued and its completion (Unspecified)
system.o3Cpu7.lsq0.loadToUse::100-109            8168      0.31%     35.34% # Distribution of cycle latency between the first time a load is issued and its completion (Unspecified)
system.o3Cpu7.lsq0.loadToUse::110-119            7879      0.30%     35.63% # Distribution of cycle latency between the first time a load is issued and its completion (Unspecified)
system.o3Cpu7.lsq0.loadToUse::120-129            7977      0.30%     35.93% # Distribution of cycle latency between the first time a load is issued and its completion (Unspecified)
system.o3Cpu7.lsq0.loadToUse::130-139            7761      0.29%     36.22% # Distribution of cycle latency between the first time a load is issued and its completion (Unspecified)
system.o3Cpu7.lsq0.loadToUse::140-149            7121      0.27%     36.49% # Distribution of cycle latency between the first time a load is issued and its completion (Unspecified)
system.o3Cpu7.lsq0.loadToUse::150-159            6838      0.26%     36.75% # Distribution of cycle latency between the first time a load is issued and its completion (Unspecified)
system.o3Cpu7.lsq0.loadToUse::160-169            6400      0.24%     36.99% # Distribution of cycle latency between the first time a load is issued and its completion (Unspecified)
system.o3Cpu7.lsq0.loadToUse::170-179            5520      0.21%     37.19% # Distribution of cycle latency between the first time a load is issued and its completion (Unspecified)
system.o3Cpu7.lsq0.loadToUse::180-189            5370      0.20%     37.40% # Distribution of cycle latency between the first time a load is issued and its completion (Unspecified)
system.o3Cpu7.lsq0.loadToUse::190-199            4944      0.19%     37.58% # Distribution of cycle latency between the first time a load is issued and its completion (Unspecified)
system.o3Cpu7.lsq0.loadToUse::200-209            5120      0.19%     37.77% # Distribution of cycle latency between the first time a load is issued and its completion (Unspecified)
system.o3Cpu7.lsq0.loadToUse::210-219            5330      0.20%     37.97% # Distribution of cycle latency between the first time a load is issued and its completion (Unspecified)
system.o3Cpu7.lsq0.loadToUse::220-229            4326      0.16%     38.14% # Distribution of cycle latency between the first time a load is issued and its completion (Unspecified)
system.o3Cpu7.lsq0.loadToUse::230-239            3710      0.14%     38.27% # Distribution of cycle latency between the first time a load is issued and its completion (Unspecified)
system.o3Cpu7.lsq0.loadToUse::240-249            3351      0.13%     38.40% # Distribution of cycle latency between the first time a load is issued and its completion (Unspecified)
system.o3Cpu7.lsq0.loadToUse::250-259            4370      0.16%     38.56% # Distribution of cycle latency between the first time a load is issued and its completion (Unspecified)
system.o3Cpu7.lsq0.loadToUse::260-269            4298      0.16%     38.73% # Distribution of cycle latency between the first time a load is issued and its completion (Unspecified)
system.o3Cpu7.lsq0.loadToUse::270-279            4074      0.15%     38.88% # Distribution of cycle latency between the first time a load is issued and its completion (Unspecified)
system.o3Cpu7.lsq0.loadToUse::280-289            4722      0.18%     39.06% # Distribution of cycle latency between the first time a load is issued and its completion (Unspecified)
system.o3Cpu7.lsq0.loadToUse::290-299            4519      0.17%     39.22% # Distribution of cycle latency between the first time a load is issued and its completion (Unspecified)
system.o3Cpu7.lsq0.loadToUse::overflows       1619734     60.78%    100.00% # Distribution of cycle latency between the first time a load is issued and its completion (Unspecified)
system.o3Cpu7.lsq0.loadToUse::min_value             2                       # Distribution of cycle latency between the first time a load is issued and its completion (Unspecified)
system.o3Cpu7.lsq0.loadToUse::max_value          4272                       # Distribution of cycle latency between the first time a load is issued and its completion (Unspecified)
system.o3Cpu7.lsq0.loadToUse::total           2665125                       # Distribution of cycle latency between the first time a load is issued and its completion (Unspecified)
system.o3Cpu7.mmu.dtb.rdAccesses              2672645                       # TLB accesses on read requests (Count)
system.o3Cpu7.mmu.dtb.wrAccesses              2927406                       # TLB accesses on write requests (Count)
system.o3Cpu7.mmu.dtb.rdMisses                   1857                       # TLB misses on read requests (Count)
system.o3Cpu7.mmu.dtb.wrMisses                   1302                       # TLB misses on write requests (Count)
system.o3Cpu7.mmu.dtb.walker.power_state.pwrStateResidencyTicks::UNDEFINED  49096823400                       # Cumulative time (in ticks) in various power states (Tick)
system.o3Cpu7.mmu.itb.rdAccesses                    0                       # TLB accesses on read requests (Count)
system.o3Cpu7.mmu.itb.wrAccesses              1601834                       # TLB accesses on write requests (Count)
system.o3Cpu7.mmu.itb.rdMisses                      0                       # TLB misses on read requests (Count)
system.o3Cpu7.mmu.itb.wrMisses                    113                       # TLB misses on write requests (Count)
system.o3Cpu7.mmu.itb.walker.power_state.pwrStateResidencyTicks::UNDEFINED  49096823400                       # Cumulative time (in ticks) in various power states (Tick)
system.o3Cpu7.power_state.pwrStateResidencyTicks::OFF  49096823400                       # Cumulative time (in ticks) in various power states (Tick)
system.o3Cpu7.rename.squashCycles                4605                       # Number of cycles rename is squashing (Cycle)
system.o3Cpu7.rename.idleCycles               1445819                       # Number of cycles rename is idle (Cycle)
system.o3Cpu7.rename.blockCycles             98619109                       # Number of cycles rename is blocking (Cycle)
system.o3Cpu7.rename.serializeStallCycles       527309                       # count of cycles rename stalled for serializing inst (Cycle)
system.o3Cpu7.rename.runCycles                2893565                       # Number of cycles rename is running (Cycle)
system.o3Cpu7.rename.unblockCycles          130857771                       # Number of cycles rename is unblocking (Cycle)
system.o3Cpu7.rename.renamedInsts            13165637                       # Number of instructions processed by rename (Count)
system.o3Cpu7.rename.ROBFullEvents              55365                       # Number of times rename has blocked due to ROB full (Count)
system.o3Cpu7.rename.IQFullEvents              351854                       # Number of times rename has blocked due to IQ full (Count)
system.o3Cpu7.rename.LQFullEvents             4471195                       # Number of times rename has blocked due to LQ full (Count)
system.o3Cpu7.rename.SQFullEvents           125888171                       # Number of times rename has blocked due to SQ full (Count)
system.o3Cpu7.rename.renamedOperands         16101612                       # Number of destination operands rename has renamed (Count)
system.o3Cpu7.rename.lookups                 41370775                       # Number of register rename lookups that rename has made (Count)
system.o3Cpu7.rename.intLookups               9023676                       # Number of integer rename lookups (Count)
system.o3Cpu7.rename.fpLookups               12286722                       # Number of floating rename lookups (Count)
system.o3Cpu7.rename.committedMaps           15991336                       # Number of HB maps that are committed (Count)
system.o3Cpu7.rename.undoneMaps                110266                       # Number of HB maps that are undone due to squashing (Count)
system.o3Cpu7.rename.serializing                 1845                       # count of serializing insts renamed (Count)
system.o3Cpu7.rename.tempSerializing             1863                       # count of temporary serializing insts renamed (Count)
system.o3Cpu7.rename.skidInsts                3187668                       # count of insts added to the skid buffer (Count)
system.o3Cpu7.rob.reads                     245092169                       # The number of ROB reads (Count)
system.o3Cpu7.rob.writes                     26297980                       # The number of ROB writes (Count)
system.o3Cpu7.thread_0.numInsts               8084575                       # Number of Instructions committed (Count)
system.o3Cpu7.thread_0.numOps                13102194                       # Number of Ops committed (Count)
system.o3Cpu7.thread_0.numMemRefs                   0                       # Number of Memory References (Count)
system.pc.bad_addr.power_state.pwrStateResidencyTicks::UNDEFINED  49096823400                       # Cumulative time (in ticks) in various power states (Tick)
system.pc.com_1.power_state.pwrStateResidencyTicks::UNDEFINED  49096823400                       # Cumulative time (in ticks) in various power states (Tick)
system.pc.default_bus.power_state.pwrStateResidencyTicks::UNDEFINED  49096823400                       # Cumulative time (in ticks) in various power states (Tick)
system.pc.empty_isa.power_state.pwrStateResidencyTicks::UNDEFINED  49096823400                       # Cumulative time (in ticks) in various power states (Tick)
system.pc.fake_com_2.power_state.pwrStateResidencyTicks::UNDEFINED  49096823400                       # Cumulative time (in ticks) in various power states (Tick)
system.pc.fake_com_3.power_state.pwrStateResidencyTicks::UNDEFINED  49096823400                       # Cumulative time (in ticks) in various power states (Tick)
system.pc.fake_com_4.power_state.pwrStateResidencyTicks::UNDEFINED  49096823400                       # Cumulative time (in ticks) in various power states (Tick)
system.pc.fake_floppy.power_state.pwrStateResidencyTicks::UNDEFINED  49096823400                       # Cumulative time (in ticks) in various power states (Tick)
system.pc.pci_host.power_state.pwrStateResidencyTicks::UNDEFINED  49096823400                       # Cumulative time (in ticks) in various power states (Tick)
system.pc.south_bridge.cmos.power_state.pwrStateResidencyTicks::UNDEFINED  49096823400                       # Cumulative time (in ticks) in various power states (Tick)
system.pc.south_bridge.dma1.power_state.pwrStateResidencyTicks::UNDEFINED  49096823400                       # Cumulative time (in ticks) in various power states (Tick)
system.pc.south_bridge.ide.disks0.IdeDisk.dmaReadFullPages            0                       # Number of full page size DMA reads (not PRD). (Count)
system.pc.south_bridge.ide.disks0.IdeDisk.dmaReadBytes            0                       # Number of bytes transfered via DMA reads (not PRD). (Byte)
system.pc.south_bridge.ide.disks0.IdeDisk.dmaReadTxs            0                       # Number of DMA read transactions (not PRD). (Count)
system.pc.south_bridge.ide.disks0.IdeDisk.dmaWriteFullPages            0                       # Number of full page size DMA writes. (Count)
system.pc.south_bridge.ide.disks0.IdeDisk.dmaWriteBytes            0                       # Number of bytes transfered via DMA writes. (Byte)
system.pc.south_bridge.ide.disks0.IdeDisk.dmaWriteTxs            0                       # Number of DMA write transactions. (Count)
system.pc.south_bridge.ide.disks1.IdeDisk.dmaReadFullPages            0                       # Number of full page size DMA reads (not PRD). (Count)
system.pc.south_bridge.ide.disks1.IdeDisk.dmaReadBytes            0                       # Number of bytes transfered via DMA reads (not PRD). (Byte)
system.pc.south_bridge.ide.disks1.IdeDisk.dmaReadTxs            0                       # Number of DMA read transactions (not PRD). (Count)
system.pc.south_bridge.ide.disks1.IdeDisk.dmaWriteFullPages            0                       # Number of full page size DMA writes. (Count)
system.pc.south_bridge.ide.disks1.IdeDisk.dmaWriteBytes            0                       # Number of bytes transfered via DMA writes. (Byte)
system.pc.south_bridge.ide.disks1.IdeDisk.dmaWriteTxs            0                       # Number of DMA write transactions. (Count)
system.pc.south_bridge.ide.power_state.pwrStateResidencyTicks::UNDEFINED  49096823400                       # Cumulative time (in ticks) in various power states (Tick)
system.pc.south_bridge.io_apic.power_state.pwrStateResidencyTicks::UNDEFINED  49096823400                       # Cumulative time (in ticks) in various power states (Tick)
system.pc.south_bridge.keyboard.power_state.pwrStateResidencyTicks::UNDEFINED  49096823400                       # Cumulative time (in ticks) in various power states (Tick)
system.pc.south_bridge.pic1.power_state.pwrStateResidencyTicks::UNDEFINED  49096823400                       # Cumulative time (in ticks) in various power states (Tick)
system.pc.south_bridge.pic2.power_state.pwrStateResidencyTicks::UNDEFINED  49096823400                       # Cumulative time (in ticks) in various power states (Tick)
system.pc.south_bridge.pit.power_state.pwrStateResidencyTicks::UNDEFINED  49096823400                       # Cumulative time (in ticks) in various power states (Tick)
system.pc.south_bridge.speaker.power_state.pwrStateResidencyTicks::UNDEFINED  49096823400                       # Cumulative time (in ticks) in various power states (Tick)
system.workload.inst.arm                            0                       # number of arm instructions executed (Count)
system.workload.inst.quiesce                        0                       # number of quiesce instructions executed (Count)

---------- End Simulation Statistics   ----------
