
---------- Begin Simulation Statistics ----------
simSeconds                                   0.093727                       # Number of seconds simulated (Second)
simTicks                                  93727031840                       # Number of ticks simulated (Tick)
finalTick                                21763021846600                       # Number of ticks from beginning of simulation (restored from checkpoints and never reset) (Tick)
simFreq                                  1000000000000                       # The number of ticks per simulated second ((Tick/Second))
hostSeconds                                  10086.60                       # Real time elapsed on the host (Second)
hostTickRate                                  9292235                       # The number of ticks simulated per host second (ticks/s) ((Tick/Second))
hostMemory                                   19856736                       # Number of bytes of host memory used (Byte)
simInsts                                     63763402                       # Number of instructions simulated (Count)
simOps                                      104324041                       # Number of ops (including micro ops) simulated (Count)
hostInstRate                                     6322                       # Simulator instruction rate (inst/s) ((Count/Second))
hostOpRate                                      10343                       # Simulator op (including micro ops) rate (op/s) ((Count/Second))
system.caches.delayHistogram::bucket_size           16                       # delay histogram for all message (Unspecified)
system.caches.delayHistogram::max_bucket          159                       # delay histogram for all message (Unspecified)
system.caches.delayHistogram::samples        39394895                       # delay histogram for all message (Unspecified)
system.caches.delayHistogram::mean           0.616099                       # delay histogram for all message (Unspecified)
system.caches.delayHistogram::stdev          2.157756                       # delay histogram for all message (Unspecified)
system.caches.delayHistogram             |    39366015     99.93%     99.93% |       28460      0.07%    100.00% |         364      0.00%    100.00% |          31      0.00%    100.00% |          21      0.00%    100.00% |           3      0.00%    100.00% |           0      0.00%    100.00% |           1      0.00%    100.00% |           0      0.00%    100.00% |           0      0.00%    100.00% # delay histogram for all message (Unspecified)
system.caches.delayHistogram::total          39394895                       # delay histogram for all message (Unspecified)
system.caches.m_outstandReqHistSeqr::bucket_size            2                       (Unspecified)
system.caches.m_outstandReqHistSeqr::max_bucket           19                       (Unspecified)
system.caches.m_outstandReqHistSeqr::samples     38044042                       (Unspecified)
system.caches.m_outstandReqHistSeqr::mean     3.671095                       (Unspecified)
system.caches.m_outstandReqHistSeqr::gmean     2.424938                       (Unspecified)
system.caches.m_outstandReqHistSeqr::stdev     3.439145                       (Unspecified)
system.caches.m_outstandReqHistSeqr      |    16206680     42.60%     42.60% |     8018134     21.08%     63.68% |     3930379     10.33%     74.01% |     3560622      9.36%     83.37% |     2265656      5.96%     89.32% |     3223810      8.47%     97.80% |      491816      1.29%     99.09% |      161394      0.42%     99.51% |      185551      0.49%    100.00% |           0      0.00%    100.00% (Unspecified)
system.caches.m_outstandReqHistSeqr::total     38044042                       (Unspecified)
system.caches.m_latencyHistSeqr::bucket_size         1024                       (Unspecified)
system.caches.m_latencyHistSeqr::max_bucket        10239                       (Unspecified)
system.caches.m_latencyHistSeqr::samples     38052409                       (Unspecified)
system.caches.m_latencyHistSeqr::mean      173.088107                       (Unspecified)
system.caches.m_latencyHistSeqr::gmean       2.800939                       (Unspecified)
system.caches.m_latencyHistSeqr::stdev     473.904135                       (Unspecified)
system.caches.m_latencyHistSeqr          |    35205482     92.52%     92.52% |     2386974      6.27%     98.79% |      391522      1.03%     99.82% |       67496      0.18%    100.00% |         926      0.00%    100.00% |           9      0.00%    100.00% |           0      0.00%    100.00% |           0      0.00%    100.00% |           0      0.00%    100.00% |           0      0.00%    100.00% (Unspecified)
system.caches.m_latencyHistSeqr::total       38052409                       (Unspecified)
system.caches.m_hitLatencyHistSeqr::bucket_size          512                       (Unspecified)
system.caches.m_hitLatencyHistSeqr::max_bucket         5119                       (Unspecified)
system.caches.m_hitLatencyHistSeqr::samples     32372303                       (Unspecified)
system.caches.m_hitLatencyHistSeqr::mean     1.016636                       (Unspecified)
system.caches.m_hitLatencyHistSeqr::gmean     1.003995                       (Unspecified)
system.caches.m_hitLatencyHistSeqr::stdev     3.561828                       (Unspecified)
system.caches.m_hitLatencyHistSeqr       |    32371961    100.00%    100.00% |         228      0.00%    100.00% |          77      0.00%    100.00% |          22      0.00%    100.00% |           8      0.00%    100.00% |           6      0.00%    100.00% |           1      0.00%    100.00% |           0      0.00%    100.00% |           0      0.00%    100.00% |           0      0.00%    100.00% (Unspecified)
system.caches.m_hitLatencyHistSeqr::total     32372303                       (Unspecified)
system.caches.m_missLatencyHistSeqr::bucket_size         1024                       (Unspecified)
system.caches.m_missLatencyHistSeqr::max_bucket        10239                       (Unspecified)
system.caches.m_missLatencyHistSeqr::samples      5680106                       (Unspecified)
system.caches.m_missLatencyHistSeqr::mean  1153.765188                       (Unspecified)
system.caches.m_missLatencyHistSeqr::gmean   969.901816                       (Unspecified)
system.caches.m_missLatencyHistSeqr::stdev   611.558615                       (Unspecified)
system.caches.m_missLatencyHistSeqr      |     2833293     49.88%     49.88% |     2386875     42.02%     91.90% |      391508      6.89%     98.80% |       67495      1.19%     99.98% |         926      0.02%    100.00% |           9      0.00%    100.00% |           0      0.00%    100.00% |           0      0.00%    100.00% |           0      0.00%    100.00% |           0      0.00%    100.00% (Unspecified)
system.caches.m_missLatencyHistSeqr::total      5680106                       (Unspecified)
system.caches.delayVCHist.vnet_0::bucket_size           16                       # delay histogram for vnet_0 (Unspecified)
system.caches.delayVCHist.vnet_0::max_bucket          159                       # delay histogram for vnet_0 (Unspecified)
system.caches.delayVCHist.vnet_0::samples     16832138                       # delay histogram for vnet_0 (Unspecified)
system.caches.delayVCHist.vnet_0::mean       1.414412                       # delay histogram for vnet_0 (Unspecified)
system.caches.delayVCHist.vnet_0::stdev      3.096108                       # delay histogram for vnet_0 (Unspecified)
system.caches.delayVCHist.vnet_0         |    16805305     99.84%     99.84% |       26602      0.16%    100.00% |         175      0.00%    100.00% |          31      0.00%    100.00% |          21      0.00%    100.00% |           3      0.00%    100.00% |           0      0.00%    100.00% |           1      0.00%    100.00% |           0      0.00%    100.00% |           0      0.00%    100.00% # delay histogram for vnet_0 (Unspecified)
system.caches.delayVCHist.vnet_0::total      16832138                       # delay histogram for vnet_0 (Unspecified)
system.caches.delayVCHist.vnet_1::bucket_size            8                       # delay histogram for vnet_1 (Unspecified)
system.caches.delayVCHist.vnet_1::max_bucket           79                       # delay histogram for vnet_1 (Unspecified)
system.caches.delayVCHist.vnet_1::samples     22480219                       # delay histogram for vnet_1 (Unspecified)
system.caches.delayVCHist.vnet_1::mean       0.020620                       # delay histogram for vnet_1 (Unspecified)
system.caches.delayVCHist.vnet_1::stdev      0.385356                       # delay histogram for vnet_1 (Unspecified)
system.caches.delayVCHist.vnet_1         |    22469265     99.95%     99.95% |        8907      0.04%     99.99% |        1451      0.01%    100.00% |         407      0.00%    100.00% |         165      0.00%    100.00% |          24      0.00%    100.00% |           0      0.00%    100.00% |           0      0.00%    100.00% |           0      0.00%    100.00% |           0      0.00%    100.00% # delay histogram for vnet_1 (Unspecified)
system.caches.delayVCHist.vnet_1::total      22480219                       # delay histogram for vnet_1 (Unspecified)
system.caches.delayVCHist.vnet_2::bucket_size            1                       # delay histogram for vnet_2 (Unspecified)
system.caches.delayVCHist.vnet_2::max_bucket            9                       # delay histogram for vnet_2 (Unspecified)
system.caches.delayVCHist.vnet_2::samples        82538                       # delay histogram for vnet_2 (Unspecified)
system.caches.delayVCHist.vnet_2::mean       0.000436                       # delay histogram for vnet_2 (Unspecified)
system.caches.delayVCHist.vnet_2::stdev      0.029532                       # delay histogram for vnet_2 (Unspecified)
system.caches.delayVCHist.vnet_2         |       82520     99.98%     99.98% |           0      0.00%     99.98% |          18      0.02%    100.00% |           0      0.00%    100.00% |           0      0.00%    100.00% |           0      0.00%    100.00% |           0      0.00%    100.00% |           0      0.00%    100.00% |           0      0.00%    100.00% |           0      0.00%    100.00% # delay histogram for vnet_2 (Unspecified)
system.caches.delayVCHist.vnet_2::total         82538                       # delay histogram for vnet_2 (Unspecified)
system.caches.L1Cache_Controller.Load    |      873619     13.09%     13.09% |      814748     12.21%     25.30% |      844233     12.65%     37.95% |      824115     12.35%     50.30% |      815885     12.23%     62.53% |      836591     12.54%     75.06% |      814802     12.21%     87.27% |      849202     12.73%    100.00% (Unspecified)
system.caches.L1Cache_Controller.Load::total      6673195                       (Unspecified)
system.caches.L1Cache_Controller.Ifetch  |     1086068     13.74%     13.74% |      898270     11.37%     25.11% |     1093895     13.84%     38.95% |      973554     12.32%     51.27% |      885290     11.20%     62.48% |     1033781     13.08%     75.56% |      925381     11.71%     87.27% |     1005841     12.73%    100.00% (Unspecified)
system.caches.L1Cache_Controller.Ifetch::total      7902080                       (Unspecified)
system.caches.L1Cache_Controller.Store   |     2995025     12.76%     12.76% |     2880533     12.27%     25.03% |     3000956     12.78%     37.81% |     2919795     12.44%     50.25% |     2881827     12.28%     62.52% |     2954416     12.58%     75.11% |     2901543     12.36%     87.46% |     2943058     12.54%    100.00% (Unspecified)
system.caches.L1Cache_Controller.Store::total     23477153                       (Unspecified)
system.caches.L1Cache_Controller.Inv     |        9515     11.62%     11.62% |        9623     11.75%     23.37% |       10577     12.91%     36.28% |       10035     12.25%     48.54% |       11532     14.08%     62.62% |       10631     12.98%     75.60% |        9988     12.20%     87.79% |        9998     12.21%    100.00% (Unspecified)
system.caches.L1Cache_Controller.Inv::total        81899                       (Unspecified)
system.caches.L1Cache_Controller.L1_Replacement |      708574     12.59%     12.59% |      697645     12.39%     24.98% |      711773     12.65%     37.63% |      701255     12.46%     50.09% |      699470     12.43%     62.51% |      704737     12.52%     75.03% |      701054     12.45%     87.49% |      704312     12.51%    100.00% (Unspecified)
system.caches.L1Cache_Controller.L1_Replacement::total      5628820                       (Unspecified)
system.caches.L1Cache_Controller.Fwd_GETS |         592     92.64%     92.64% |          22      3.44%     96.09% |           8      1.25%     97.34% |           2      0.31%     97.65% |           7      1.10%     98.75% |           4      0.63%     99.37% |           2      0.31%     99.69% |           2      0.31%    100.00% (Unspecified)
system.caches.L1Cache_Controller.Fwd_GETS::total          639                       (Unspecified)
system.caches.L1Cache_Controller.Data    |         194    100.00%    100.00% |           0      0.00%    100.00% |           0      0.00%    100.00% |           0      0.00%    100.00% |           0      0.00%    100.00% |           0      0.00%    100.00% |           0      0.00%    100.00% |           0      0.00%    100.00% (Unspecified)
system.caches.L1Cache_Controller.Data::total          194                       (Unspecified)
system.caches.L1Cache_Controller.Data_Exclusive |      331422     12.43%     12.43% |      334246     12.53%     24.96% |      332890     12.48%     37.44% |      332847     12.48%     49.92% |      335837     12.59%     62.52% |      331869     12.44%     74.96% |      334837     12.56%     87.52% |      332944     12.48%    100.00% (Unspecified)
system.caches.L1Cache_Controller.Data_Exclusive::total      2666892                       (Unspecified)
system.caches.L1Cache_Controller.DataS_fromL1 |          13      2.03%      2.03% |         418     65.41%     67.45% |         144     22.54%     89.98% |          32      5.01%     94.99% |           9      1.41%     96.40% |          13      2.03%     98.44% |           5      0.78%     99.22% |           5      0.78%    100.00% (Unspecified)
system.caches.L1Cache_Controller.DataS_fromL1::total          639                       (Unspecified)
system.caches.L1Cache_Controller.Data_all_Acks |      384430     12.76%     12.76% |      369325     12.26%     25.02% |      384983     12.78%     37.81% |      374671     12.44%     50.25% |      369738     12.28%     62.52% |      379074     12.59%     75.11% |      372360     12.36%     87.47% |      377460     12.53%    100.00% (Unspecified)
system.caches.L1Cache_Controller.Data_all_Acks::total      3012041                       (Unspecified)
system.caches.L1Cache_Controller.Ack     |        2631    100.00%    100.00% |           0      0.00%    100.00% |           0      0.00%    100.00% |           0      0.00%    100.00% |           0      0.00%    100.00% |           0      0.00%    100.00% |           0      0.00%    100.00% |           0      0.00%    100.00% (Unspecified)
system.caches.L1Cache_Controller.Ack::total         2631                       (Unspecified)
system.caches.L1Cache_Controller.Ack_all |         534    100.00%    100.00% |           0      0.00%    100.00% |           0      0.00%    100.00% |           0      0.00%    100.00% |           0      0.00%    100.00% |           0      0.00%    100.00% |           0      0.00%    100.00% |           0      0.00%    100.00% (Unspecified)
system.caches.L1Cache_Controller.Ack_all::total          534                       (Unspecified)
system.caches.L1Cache_Controller.WB_Ack  |      699939     12.59%     12.59% |      689596     12.41%     25.00% |      702504     12.64%     37.64% |      692686     12.46%     50.11% |      689327     12.40%     62.51% |      695446     12.51%     75.02% |      692379     12.46%     87.48% |      695761     12.52%    100.00% (Unspecified)
system.caches.L1Cache_Controller.WB_Ack::total      5557638                       (Unspecified)
system.caches.L1Cache_Controller.NP.Load |      334179     12.42%     12.42% |      336999     12.53%     24.95% |      335937     12.49%     37.44% |      335719     12.48%     49.92% |      338647     12.59%     62.51% |      334801     12.45%     74.95% |      337773     12.56%     87.51% |      336044     12.49%    100.00% (Unspecified)
system.caches.L1Cache_Controller.NP.Load::total      2690099                       (Unspecified)
system.caches.L1Cache_Controller.NP.Ifetch |        3229     20.89%     20.89% |        1795     11.61%     32.50% |        1753     11.34%     43.84% |        1792     11.59%     55.43% |        1800     11.64%     67.07% |        1791     11.58%     78.65% |        1786     11.55%     90.21% |        1514      9.79%    100.00% (Unspecified)
system.caches.L1Cache_Controller.NP.Ifetch::total        15460                       (Unspecified)
system.caches.L1Cache_Controller.NP.Store |      371372     12.70%     12.70% |      358917     12.28%     24.98% |      374132     12.80%     37.77% |      363817     12.44%     50.22% |      359077     12.28%     62.50% |      368218     12.59%     75.09% |      361540     12.37%     87.45% |      366812     12.55%    100.00% (Unspecified)
system.caches.L1Cache_Controller.NP.Store::total      2923885                       (Unspecified)
system.caches.L1Cache_Controller.NP.Inv  |          93      4.23%      4.23% |         266     12.11%     16.35% |         300     13.66%     30.01% |         311     14.16%     44.17% |         298     13.57%     57.74% |         313     14.25%     71.99% |         303     13.80%     85.79% |         312     14.21%    100.00% (Unspecified)
system.caches.L1Cache_Controller.NP.Inv::total         2196                       (Unspecified)
system.caches.L1Cache_Controller.I.Load  |         701     11.92%     11.92% |         882     15.00%     26.92% |         759     12.91%     39.82% |         766     13.02%     52.85% |         699     11.89%     64.73% |         742     12.62%     77.35% |         698     11.87%     89.22% |         634     10.78%    100.00% (Unspecified)
system.caches.L1Cache_Controller.I.Load::total         5881                       (Unspecified)
system.caches.L1Cache_Controller.I.Ifetch |        6178     14.77%     14.77% |        5074     12.13%     26.90% |        5110     12.22%     39.12% |        5107     12.21%     51.33% |        5063     12.11%     63.44% |        5083     12.15%     75.59% |        5103     12.20%     87.79% |        5107     12.21%    100.00% (Unspecified)
system.caches.L1Cache_Controller.I.Ifetch::total        41825                       (Unspecified)
system.caches.L1Cache_Controller.I.Store |         402     15.28%     15.28% |         324     12.31%     27.59% |         328     12.47%     40.06% |         351     13.34%     53.40% |         300     11.40%     64.80% |         322     12.24%     77.04% |         304     11.55%     88.60% |         300     11.40%    100.00% (Unspecified)
system.caches.L1Cache_Controller.I.Store::total         2631                       (Unspecified)
system.caches.L1Cache_Controller.I.Inv   |           0      0.00%      0.00% |           1    100.00%    100.00% |           0      0.00%    100.00% |           0      0.00%    100.00% |           0      0.00%    100.00% |           0      0.00%    100.00% |           0      0.00%    100.00% |           0      0.00%    100.00% (Unspecified)
system.caches.L1Cache_Controller.I.Inv::total            1                       (Unspecified)
system.caches.L1Cache_Controller.I.L1_Replacement |        2049      7.13%      7.13% |        3006     10.46%     17.58% |        4005     13.93%     31.52% |        3415     11.88%     43.39% |        5104     17.75%     61.15% |        4095     14.24%     75.39% |        3518     12.24%     87.63% |        3556     12.37%    100.00% (Unspecified)
system.caches.L1Cache_Controller.I.L1_Replacement::total        28748                       (Unspecified)
system.caches.L1Cache_Controller.S.Load  |       28735     11.85%     11.85% |       38599     15.92%     27.77% |       31552     13.01%     40.78% |       29906     12.33%     53.12% |       29325     12.09%     65.21% |       28119     11.60%     76.81% |       28852     11.90%     88.71% |       27369     11.29%    100.00% (Unspecified)
system.caches.L1Cache_Controller.S.Load::total       242457                       (Unspecified)
system.caches.L1Cache_Controller.S.Ifetch |     1076661     13.72%     13.72% |      891401     11.36%     25.09% |     1087032     13.86%     38.94% |      966655     12.32%     51.27% |      878427     11.20%     62.46% |     1026907     13.09%     75.55% |      918492     11.71%     87.26% |      999220     12.74%    100.00% (Unspecified)
system.caches.L1Cache_Controller.S.Ifetch::total      7844795                       (Unspecified)
system.caches.L1Cache_Controller.S.Store |         340    100.00%    100.00% |           0      0.00%    100.00% |           0      0.00%    100.00% |           0      0.00%    100.00% |           0      0.00%    100.00% |           0      0.00%    100.00% |           0      0.00%    100.00% |           0      0.00%    100.00% (Unspecified)
system.caches.L1Cache_Controller.S.Store::total          340                       (Unspecified)
system.caches.L1Cache_Controller.S.Inv   |        6318     14.31%     14.31% |        5496     12.45%     26.76% |        5422     12.28%     39.04% |        5401     12.23%     51.27% |        5363     12.15%     63.42% |        5378     12.18%     75.60% |        5386     12.20%     87.80% |        5385     12.20%    100.00% (Unspecified)
system.caches.L1Cache_Controller.S.Inv::total        44149                       (Unspecified)
system.caches.L1Cache_Controller.S.L1_Replacement |        6586     15.53%     15.53% |        5042     11.89%     27.41% |        5262     12.40%     39.82% |        5152     12.14%     51.96% |        5037     11.87%     63.83% |        5195     12.25%     76.08% |        5156     12.15%     88.23% |        4991     11.77%    100.00% (Unspecified)
system.caches.L1Cache_Controller.S.L1_Replacement::total        42421                       (Unspecified)
system.caches.L1Cache_Controller.E.Load  |      468090     13.24%     13.24% |      416289     11.77%     25.01% |      453286     12.82%     37.83% |      435197     12.31%     50.14% |      425730     12.04%     62.18% |      451279     12.76%     74.94% |      424690     12.01%     86.95% |      461552     13.05%    100.00% (Unspecified)
system.caches.L1Cache_Controller.E.Load::total      3536113                       (Unspecified)
system.caches.L1Cache_Controller.E.Store |         940     17.65%     17.65% |         651     12.22%     29.87% |         631     11.85%     41.72% |         619     11.62%     53.34% |         608     11.42%     64.76% |         651     12.22%     76.98% |         616     11.57%     88.55% |         610     11.45%    100.00% (Unspecified)
system.caches.L1Cache_Controller.E.Store::total         5326                       (Unspecified)
system.caches.L1Cache_Controller.E.Inv   |         868      5.80%      5.80% |        1824     12.19%     17.99% |        1804     12.05%     30.04% |        2023     13.52%     43.55% |        2384     15.93%     59.48% |        1818     12.15%     71.63% |        2305     15.40%     87.03% |        1942     12.97%    100.00% (Unspecified)
system.caches.L1Cache_Controller.E.Inv::total        14968                       (Unspecified)
system.caches.L1Cache_Controller.E.L1_Replacement |      325483     12.34%     12.34% |      331062     12.55%     24.89% |      329735     12.50%     37.40% |      329496     12.49%     49.89% |      332059     12.59%     62.48% |      328784     12.47%     74.95% |      331214     12.56%     87.50% |      329564     12.50%    100.00% (Unspecified)
system.caches.L1Cache_Controller.E.L1_Replacement::total      2637397                       (Unspecified)
system.caches.L1Cache_Controller.E.Fwd_GETS |          57     54.81%     54.81% |          22     21.15%     75.96% |           8      7.69%     83.65% |           2      1.92%     85.58% |           7      6.73%     92.31% |           4      3.85%     96.15% |           2      1.92%     98.08% |           2      1.92%    100.00% (Unspecified)
system.caches.L1Cache_Controller.E.Fwd_GETS::total          104                       (Unspecified)
system.caches.L1Cache_Controller.M.Load  |       41914     21.10%     21.10% |       21979     11.06%     32.16% |       22699     11.43%     43.59% |       22527     11.34%     54.93% |       21484     10.82%     65.75% |       21650     10.90%     76.65% |       22789     11.47%     88.12% |       23600     11.88%    100.00% (Unspecified)
system.caches.L1Cache_Controller.M.Load::total       198642                       (Unspecified)
system.caches.L1Cache_Controller.M.Store |     2621971     12.76%     12.76% |     2520641     12.27%     25.03% |     2625865     12.78%     37.81% |     2555008     12.44%     50.25% |     2521842     12.27%     62.52% |     2585225     12.58%     75.11% |     2539083     12.36%     87.46% |     2575335     12.54%    100.00% (Unspecified)
system.caches.L1Cache_Controller.M.Store::total     20544970                       (Unspecified)
system.caches.L1Cache_Controller.M.Inv   |        2236     10.88%     10.88% |        2030      9.88%     20.75% |        3041     14.79%     35.55% |        2296     11.17%     46.72% |        3484     16.95%     63.67% |        3119     15.17%     78.84% |        1991      9.69%     88.52% |        2359     11.48%    100.00% (Unspecified)
system.caches.L1Cache_Controller.M.Inv::total        20556                       (Unspecified)
system.caches.L1Cache_Controller.M.L1_Replacement |      374456     12.82%     12.82% |      358534     12.28%     25.10% |      372769     12.77%     37.87% |      363190     12.44%     50.30% |      357268     12.23%     62.54% |      366662     12.56%     75.09% |      361165     12.37%     87.46% |      366197     12.54%    100.00% (Unspecified)
system.caches.L1Cache_Controller.M.L1_Replacement::total      2920241                       (Unspecified)
system.caches.L1Cache_Controller.M.Fwd_GETS |         535    100.00%    100.00% |           0      0.00%    100.00% |           0      0.00%    100.00% |           0      0.00%    100.00% |           0      0.00%    100.00% |           0      0.00%    100.00% |           0      0.00%    100.00% |           0      0.00%    100.00% (Unspecified)
system.caches.L1Cache_Controller.M.Fwd_GETS::total          535                       (Unspecified)
system.caches.L1Cache_Controller.IS.Inv  |           0      0.00%      0.00% |           6     23.08%     23.08% |          10     38.46%     61.54% |           4     15.38%     76.92% |           2      7.69%     84.62% |           2      7.69%     92.31% |           2      7.69%    100.00% |           0      0.00%    100.00% (Unspecified)
system.caches.L1Cache_Controller.IS.Inv::total           26                       (Unspecified)
system.caches.L1Cache_Controller.IS.L1_Replacement |           0      0.00%      0.00% |           1      7.69%      7.69% |           2     15.38%     23.08% |           2     15.38%     38.46% |           2     15.38%     53.85% |           1      7.69%     61.54% |           1      7.69%     69.23% |           4     30.77%    100.00% (Unspecified)
system.caches.L1Cache_Controller.IS.L1_Replacement::total           13                       (Unspecified)
system.caches.L1Cache_Controller.IS.Data_Exclusive |      331422     12.43%     12.43% |      334246     12.53%     24.96% |      332890     12.48%     37.44% |      332847     12.48%     49.92% |      335837     12.59%     62.52% |      331869     12.44%     74.96% |      334837     12.56%     87.52% |      332944     12.48%    100.00% (Unspecified)
system.caches.L1Cache_Controller.IS.Data_Exclusive::total      2666892                       (Unspecified)
system.caches.L1Cache_Controller.IS.DataS_fromL1 |          13      2.04%      2.04% |         417     65.36%     67.40% |         144     22.57%     89.97% |          32      5.02%     94.98% |           9      1.41%     96.39% |          13      2.04%     98.43% |           5      0.78%     99.22% |           5      0.78%    100.00% (Unspecified)
system.caches.L1Cache_Controller.IS.DataS_fromL1::total          638                       (Unspecified)
system.caches.L1Cache_Controller.IS.Data_all_Acks |       12851     14.99%     14.99% |       10080     11.76%     26.76% |       10514     12.27%     39.02% |       10500     12.25%     51.28% |       10360     12.09%     63.36% |       10533     12.29%     75.66% |       10515     12.27%     87.92% |       10349     12.08%    100.00% (Unspecified)
system.caches.L1Cache_Controller.IS.Data_all_Acks::total        85702                       (Unspecified)
system.caches.L1Cache_Controller.IM.Data |         194    100.00%    100.00% |           0      0.00%    100.00% |           0      0.00%    100.00% |           0      0.00%    100.00% |           0      0.00%    100.00% |           0      0.00%    100.00% |           0      0.00%    100.00% |           0      0.00%    100.00% (Unspecified)
system.caches.L1Cache_Controller.IM.Data::total          194                       (Unspecified)
system.caches.L1Cache_Controller.IM.Data_all_Acks |      371579     12.70%     12.70% |      359240     12.28%     24.97% |      374459     12.80%     37.77% |      364167     12.44%     50.21% |      359376     12.28%     62.50% |      368539     12.59%     75.09% |      361843     12.37%     87.45% |      367111     12.55%    100.00% (Unspecified)
system.caches.L1Cache_Controller.IM.Data_all_Acks::total      2926314                       (Unspecified)
system.caches.L1Cache_Controller.SM.Ack  |        2631    100.00%    100.00% |           0      0.00%    100.00% |           0      0.00%    100.00% |           0      0.00%    100.00% |           0      0.00%    100.00% |           0      0.00%    100.00% |           0      0.00%    100.00% |           0      0.00%    100.00% (Unspecified)
system.caches.L1Cache_Controller.SM.Ack::total         2631                       (Unspecified)
system.caches.L1Cache_Controller.SM.Ack_all |         534    100.00%    100.00% |           0      0.00%    100.00% |           0      0.00%    100.00% |           0      0.00%    100.00% |           0      0.00%    100.00% |           0      0.00%    100.00% |           0      0.00%    100.00% |           0      0.00%    100.00% (Unspecified)
system.caches.L1Cache_Controller.SM.Ack_all::total          534                       (Unspecified)
system.caches.L1Cache_Controller.IS_I.DataS_fromL1 |           0      0.00%      0.00% |           1    100.00%    100.00% |           0      0.00%    100.00% |           0      0.00%    100.00% |           0      0.00%    100.00% |           0      0.00%    100.00% |           0      0.00%    100.00% |           0      0.00%    100.00% (Unspecified)
system.caches.L1Cache_Controller.IS_I.DataS_fromL1::total            1                       (Unspecified)
system.caches.L1Cache_Controller.IS_I.Data_all_Acks |           0      0.00%      0.00% |           5     20.00%     20.00% |          10     40.00%     60.00% |           4     16.00%     76.00% |           2      8.00%     84.00% |           2      8.00%     92.00% |           2      8.00%    100.00% |           0      0.00%    100.00% (Unspecified)
system.caches.L1Cache_Controller.IS_I.Data_all_Acks::total           25                       (Unspecified)
system.caches.L1Cache_Controller.M_I.Load |           0      0.00%      0.00% |           0      0.00%      0.00% |           0      0.00%      0.00% |           0      0.00%      0.00% |           0      0.00%      0.00% |           0      0.00%      0.00% |           0      0.00%      0.00% |           3    100.00%    100.00% (Unspecified)
system.caches.L1Cache_Controller.M_I.Load::total            3                       (Unspecified)
system.caches.L1Cache_Controller.M_I.Store |           0      0.00%      0.00% |           0      0.00%      0.00% |           0      0.00%      0.00% |           0      0.00%      0.00% |           0      0.00%      0.00% |           0      0.00%      0.00% |           0      0.00%      0.00% |           1    100.00%    100.00% (Unspecified)
system.caches.L1Cache_Controller.M_I.Store::total            1                       (Unspecified)
system.caches.L1Cache_Controller.M_I.Inv |           0      0.00%      0.00% |           0      0.00%      0.00% |           0      0.00%      0.00% |           0      0.00%      0.00% |           1     33.33%     33.33% |           1     33.33%     66.67% |           1     33.33%    100.00% |           0      0.00%    100.00% (Unspecified)
system.caches.L1Cache_Controller.M_I.Inv::total            3                       (Unspecified)
system.caches.L1Cache_Controller.M_I.WB_Ack |      699939     12.59%     12.59% |      689596     12.41%     25.00% |      702504     12.64%     37.64% |      692686     12.46%     50.11% |      689326     12.40%     62.51% |      695445     12.51%     75.02% |      692378     12.46%     87.48% |      695761     12.52%    100.00% (Unspecified)
system.caches.L1Cache_Controller.M_I.WB_Ack::total      5557635                       (Unspecified)
system.caches.L1Cache_Controller.SINK_WB_ACK.WB_Ack |           0      0.00%      0.00% |           0      0.00%      0.00% |           0      0.00%      0.00% |           0      0.00%      0.00% |           1     33.33%     33.33% |           1     33.33%     66.67% |           1     33.33%    100.00% |           0      0.00%    100.00% (Unspecified)
system.caches.L1Cache_Controller.SINK_WB_ACK.WB_Ack::total            3                       (Unspecified)
system.caches.Directory_Controller.Fetch |        6583      0.12%      0.12% |     5573394     99.88%    100.00% (Unspecified)
system.caches.Directory_Controller.Fetch::total      5579977                       (Unspecified)
system.caches.Directory_Controller.Data  |         263      0.01%      0.01% |     2960003     99.99%    100.00% (Unspecified)
system.caches.Directory_Controller.Data::total      2960266                       (Unspecified)
system.caches.Directory_Controller.Memory_Data |        6583      0.12%      0.12% |     5573380     99.88%    100.00% (Unspecified)
system.caches.Directory_Controller.Memory_Data::total      5579963                       (Unspecified)
system.caches.Directory_Controller.Memory_Ack |         263      0.01%      0.01% |     2960001     99.99%    100.00% (Unspecified)
system.caches.Directory_Controller.Memory_Ack::total      2960264                       (Unspecified)
system.caches.Directory_Controller.CleanReplacement |        6328      0.24%      0.24% |     2613383     99.76%    100.00% (Unspecified)
system.caches.Directory_Controller.CleanReplacement::total      2619711                       (Unspecified)
system.caches.Directory_Controller.I.Fetch |        6583      0.12%      0.12% |     5573394     99.88%    100.00% (Unspecified)
system.caches.Directory_Controller.I.Fetch::total      5579977                       (Unspecified)
system.caches.Directory_Controller.M.Data |         263      0.01%      0.01% |     2960003     99.99%    100.00% (Unspecified)
system.caches.Directory_Controller.M.Data::total      2960266                       (Unspecified)
system.caches.Directory_Controller.M.CleanReplacement |        6328      0.24%      0.24% |     2613383     99.76%    100.00% (Unspecified)
system.caches.Directory_Controller.M.CleanReplacement::total      2619711                       (Unspecified)
system.caches.Directory_Controller.IM.Memory_Data |        6583      0.12%      0.12% |     5573380     99.88%    100.00% (Unspecified)
system.caches.Directory_Controller.IM.Memory_Data::total      5579963                       (Unspecified)
system.caches.Directory_Controller.MI.Memory_Ack |         263      0.01%      0.01% |     2960001     99.99%    100.00% (Unspecified)
system.caches.Directory_Controller.MI.Memory_Ack::total      2960264                       (Unspecified)
system.caches.L2Cache_Controller.L1_GET_INSTR |        7811     13.63%     13.63% |        8354     14.58%     28.21% |        5757     10.05%     38.26% |        4516      7.88%     46.14% |        6224     10.86%     57.00% |        8115     14.16%     71.17% |        7851     13.70%     84.87% |        8670     15.13%    100.00% (Unspecified)
system.caches.L2Cache_Controller.L1_GET_INSTR::total        57298                       (Unspecified)
system.caches.L2Cache_Controller.L1_GETS |      340535     12.63%     12.63% |      337991     12.54%     25.17% |      336395     12.48%     37.64% |      335993     12.46%     50.10% |      336116     12.47%     62.57% |      335917     12.46%     75.03% |      335989     12.46%     87.49% |      337351     12.51%    100.00% (Unspecified)
system.caches.L2Cache_Controller.L1_GETS::total      2696287                       (Unspecified)
system.caches.L2Cache_Controller.L1_GETX |      366366     12.52%     12.52% |      365718     12.50%     25.02% |      364482     12.45%     37.47% |      365419     12.49%     49.96% |      365651     12.49%     62.45% |      366889     12.54%     74.99% |      365839     12.50%     87.49% |      366166     12.51%    100.00% (Unspecified)
system.caches.L2Cache_Controller.L1_GETX::total      2926530                       (Unspecified)
system.caches.L2Cache_Controller.L1_UPGRADE |          43     10.67%     10.67% |          95     23.57%     34.24% |           0      0.00%     34.24% |           0      0.00%     34.24% |           0      0.00%     34.24% |           0      0.00%     34.24% |         265     65.76%    100.00% |           0      0.00%    100.00% (Unspecified)
system.caches.L2Cache_Controller.L1_UPGRADE::total          403                       (Unspecified)
system.caches.L2Cache_Controller.L1_PUTX |      695069     12.51%     12.51% |      694903     12.50%     25.01% |      693495     12.48%     37.49% |      694282     12.49%     49.98% |      694586     12.50%     62.48% |      695582     12.52%     74.99% |      694765     12.50%     87.50% |      694953     12.50%    100.00% (Unspecified)
system.caches.L2Cache_Controller.L1_PUTX::total      5557635                       (Unspecified)
system.caches.L2Cache_Controller.L1_PUTX_old |           0      0.00%      0.00% |           0      0.00%      0.00% |           2     40.00%     40.00% |           2     40.00%     80.00% |           0      0.00%     80.00% |           0      0.00%     80.00% |           0      0.00%     80.00% |           1     20.00%    100.00% (Unspecified)
system.caches.L2Cache_Controller.L1_PUTX_old::total            5                       (Unspecified)
system.caches.L2Cache_Controller.L2_Replacement |      368012     12.51%     12.51% |      367702     12.49%     25.00% |      367572     12.49%     37.49% |      367817     12.50%     49.99% |      367691     12.49%     62.48% |      368175     12.51%     74.99% |      367850     12.50%     87.49% |      368025     12.51%    100.00% (Unspecified)
system.caches.L2Cache_Controller.L2_Replacement::total      2942844                       (Unspecified)
system.caches.L2Cache_Controller.L2_Replacement_clean |      329923     12.51%     12.51% |      329983     12.51%     25.02% |      328857     12.47%     37.49% |      329315     12.49%     49.98% |      329684     12.50%     62.48% |      330033     12.51%     75.00% |      329576     12.50%     87.50% |      329762     12.50%    100.00% (Unspecified)
system.caches.L2Cache_Controller.L2_Replacement_clean::total      2637133                       (Unspecified)
system.caches.L2Cache_Controller.Mem_Data |      697932     12.51%     12.51% |      697683     12.50%     25.01% |      696428     12.48%     37.49% |      697131     12.49%     49.99% |      697373     12.50%     62.48% |      698205     12.51%     75.00% |      697425     12.50%     87.49% |      697785     12.51%    100.00% (Unspecified)
system.caches.L2Cache_Controller.Mem_Data::total      5579962                       (Unspecified)
system.caches.L2Cache_Controller.Mem_Ack |      697935     12.51%     12.51% |      697684     12.50%     25.01% |      696429     12.48%     37.49% |      697132     12.49%     49.99% |      697375     12.50%     62.48% |      698207     12.51%     75.00% |      697426     12.50%     87.49% |      697787     12.51%    100.00% (Unspecified)
system.caches.L2Cache_Controller.Mem_Ack::total      5579975                       (Unspecified)
system.caches.L2Cache_Controller.WB_Data |        2958     14.02%     14.02% |        2562     12.15%     26.17% |        1726      8.18%     34.35% |        2428     11.51%     45.86% |        2324     11.02%     56.88% |        3224     15.28%     72.17% |        2860     13.56%     85.73% |        3011     14.27%    100.00% (Unspecified)
system.caches.L2Cache_Controller.WB_Data::total        21093                       (Unspecified)
system.caches.L2Cache_Controller.WB_Data_clean |          23     21.90%     21.90% |          14     13.33%     35.24% |          17     16.19%     51.43% |           5      4.76%     56.19% |           6      5.71%     61.90% |          11     10.48%     72.38% |          12     11.43%     83.81% |          17     16.19%    100.00% (Unspecified)
system.caches.L2Cache_Controller.WB_Data_clean::total          105                       (Unspecified)
system.caches.L2Cache_Controller.Ack     |        4838     13.06%     13.06% |        4981     13.44%     26.50% |        4422     11.94%     38.44% |        3862     10.42%     48.86% |        5085     13.73%     62.59% |        5104     13.78%     76.37% |        4654     12.56%     88.93% |        4102     11.07%    100.00% (Unspecified)
system.caches.L2Cache_Controller.Ack::total        37048                       (Unspecified)
system.caches.L2Cache_Controller.Ack_all |        2895     13.49%     13.49% |        3088     14.38%     27.87% |        2390     11.13%     39.00% |        2382     11.10%     50.10% |        2825     13.16%     63.26% |        2704     12.60%     75.86% |        2585     12.04%     87.90% |        2598     12.10%    100.00% (Unspecified)
system.caches.L2Cache_Controller.Ack_all::total        21467                       (Unspecified)
system.caches.L2Cache_Controller.Unblock |         216     33.80%     33.80% |         109     17.06%     50.86% |          17      2.66%     53.52% |           5      0.78%     54.30% |           6      0.94%     55.24% |          11      1.72%     56.96% |         259     40.53%     97.50% |          16      2.50%    100.00% (Unspecified)
system.caches.L2Cache_Controller.Unblock::total          639                       (Unspecified)
system.caches.L2Cache_Controller.Exclusive_Unblock |      700050     12.51%     12.51% |      699657     12.51%     25.02% |      696828     12.46%     37.48% |      698398     12.49%     49.97% |      698902     12.49%     62.46% |      700664     12.53%     74.99% |      699470     12.50%     87.49% |      699771     12.51%    100.00% (Unspecified)
system.caches.L2Cache_Controller.Exclusive_Unblock::total      5593740                       (Unspecified)
system.caches.L2Cache_Controller.NP.L1_GET_INSTR |         843     13.31%     13.31% |         866     13.68%     26.99% |         764     12.07%     39.06% |         687     10.85%     49.91% |         830     13.11%     63.01% |         826     13.04%     76.06% |         737     11.64%     87.70% |         779     12.30%    100.00% (Unspecified)
system.caches.L2Cache_Controller.NP.L1_GET_INSTR::total         6332                       (Unspecified)
system.caches.L2Cache_Controller.NP.L1_GETS |      332023     12.51%     12.51% |      331912     12.50%     25.01% |      331336     12.48%     37.50% |      331647     12.49%     49.99% |      331691     12.50%     62.49% |      331971     12.51%     74.99% |      331773     12.50%     87.49% |      331942     12.51%    100.00% (Unspecified)
system.caches.L2Cache_Controller.NP.L1_GETS::total      2654295                       (Unspecified)
system.caches.L2Cache_Controller.NP.L1_GETX |      365069     12.51%     12.51% |      364907     12.50%     25.00% |      364329     12.48%     37.48% |      364798     12.50%     49.98% |      364854     12.50%     62.48% |      365411     12.52%     75.00% |      364916     12.50%     87.49% |      365066     12.51%    100.00% (Unspecified)
system.caches.L2Cache_Controller.NP.L1_GETX::total      2919350                       (Unspecified)
system.caches.L2Cache_Controller.NP.L1_PUTX_old |           0      0.00%      0.00% |           0      0.00%      0.00% |           1     50.00%     50.00% |           1     50.00%    100.00% |           0      0.00%    100.00% |           0      0.00%    100.00% |           0      0.00%    100.00% |           0      0.00%    100.00% (Unspecified)
system.caches.L2Cache_Controller.NP.L1_PUTX_old::total            2                       (Unspecified)
system.caches.L2Cache_Controller.SS.L1_GET_INSTR |        6483     14.01%     14.01% |        6895     14.90%     28.90% |        4458      9.63%     38.53% |        3328      7.19%     45.72% |        4822     10.42%     56.14% |        6529     14.10%     70.24% |        6373     13.77%     84.01% |        7402     15.99%    100.00% (Unspecified)
system.caches.L2Cache_Controller.SS.L1_GET_INSTR::total        46290                       (Unspecified)
system.caches.L2Cache_Controller.SS.L1_GETS |        6610     23.34%     23.34% |        3999     14.12%     37.47% |        4016     14.18%     51.65% |        2991     10.56%     62.21% |        2853     10.08%     72.29% |        2109      7.45%     79.74% |        2028      7.16%     86.90% |        3709     13.10%    100.00% (Unspecified)
system.caches.L2Cache_Controller.SS.L1_GETS::total        28315                       (Unspecified)
system.caches.L2Cache_Controller.SS.L1_GETX |         149     76.80%     76.80% |           0      0.00%     76.80% |           0      0.00%     76.80% |           0      0.00%     76.80% |           0      0.00%     76.80% |           0      0.00%     76.80% |          45     23.20%    100.00% |           0      0.00%    100.00% (Unspecified)
system.caches.L2Cache_Controller.SS.L1_GETX::total          194                       (Unspecified)
system.caches.L2Cache_Controller.SS.L1_UPGRADE |          43     12.65%     12.65% |          95     27.94%     40.59% |           0      0.00%     40.59% |           0      0.00%     40.59% |           0      0.00%     40.59% |           0      0.00%     40.59% |         202     59.41%    100.00% |           0      0.00%    100.00% (Unspecified)
system.caches.L2Cache_Controller.SS.L1_UPGRADE::total          340                       (Unspecified)
system.caches.L2Cache_Controller.SS.L2_Replacement |           1    100.00%    100.00% |           0      0.00%    100.00% |           0      0.00%    100.00% |           0      0.00%    100.00% |           0      0.00%    100.00% |           0      0.00%    100.00% |           0      0.00%    100.00% |           0      0.00%    100.00% (Unspecified)
system.caches.L2Cache_Controller.SS.L2_Replacement::total            1                       (Unspecified)
system.caches.L2Cache_Controller.SS.L2_Replacement_clean |         875     13.47%     13.47% |         890     13.70%     27.16% |         790     12.16%     39.32% |         697     10.73%     50.05% |         838     12.90%     62.94% |         845     13.00%     75.95% |         757     11.65%     87.60% |         806     12.40%    100.00% (Unspecified)
system.caches.L2Cache_Controller.SS.L2_Replacement_clean::total         6498                       (Unspecified)
system.caches.L2Cache_Controller.M.L1_GET_INSTR |           1     10.00%     10.00% |           3     30.00%     40.00% |           1     10.00%     50.00% |           0      0.00%     50.00% |           0      0.00%     50.00% |           1     10.00%     60.00% |           2     20.00%     80.00% |           2     20.00%    100.00% (Unspecified)
system.caches.L2Cache_Controller.M.L1_GET_INSTR::total           10                       (Unspecified)
system.caches.L2Cache_Controller.M.L1_GETS |        1633     12.92%     12.92% |        1943     15.37%     28.29% |        1017      8.05%     36.33% |        1340     10.60%     46.93% |        1565     12.38%     59.31% |        1813     14.34%     73.66% |        1659     13.12%     86.78% |        1671     13.22%    100.00% (Unspecified)
system.caches.L2Cache_Controller.M.L1_GETS::total        12641                       (Unspecified)
system.caches.L2Cache_Controller.M.L1_GETX |        1145     16.42%     16.42% |         808     11.59%     28.01% |         153      2.19%     30.21% |         618      8.86%     39.07% |         795     11.40%     50.47% |        1477     21.18%     71.66% |         878     12.59%     84.25% |        1098     15.75%    100.00% (Unspecified)
system.caches.L2Cache_Controller.M.L1_GETX::total         6972                       (Unspecified)
system.caches.L2Cache_Controller.M.L2_Replacement |      367492     12.50%     12.50% |      367360     12.50%     25.00% |      367504     12.50%     37.50% |      367510     12.50%     50.00% |      367418     12.50%     62.50% |      367522     12.50%     75.00% |      367450     12.50%     87.50% |      367441     12.50%    100.00% (Unspecified)
system.caches.L2Cache_Controller.M.L2_Replacement::total      2939697                       (Unspecified)
system.caches.L2Cache_Controller.M.L2_Replacement_clean |      324783     12.50%     12.50% |      324770     12.50%     25.00% |      324809     12.50%     37.50% |      324812     12.50%     50.00% |      324808     12.50%     62.50% |      324758     12.50%     75.00% |      324778     12.50%     87.50% |      324736     12.50%    100.00% (Unspecified)
system.caches.L2Cache_Controller.M.L2_Replacement_clean::total      2598254                       (Unspecified)
system.caches.L2Cache_Controller.MT.L1_GETS |         216     33.80%     33.80% |         109     17.06%     50.86% |          17      2.66%     53.52% |           5      0.78%     54.30% |           6      0.94%     55.24% |          11      1.72%     56.96% |         259     40.53%     97.50% |          16      2.50%    100.00% (Unspecified)
system.caches.L2Cache_Controller.MT.L1_GETS::total          639                       (Unspecified)
system.caches.L2Cache_Controller.MT.L1_PUTX |      695069     12.51%     12.51% |      694903     12.50%     25.01% |      693495     12.48%     37.49% |      694282     12.49%     49.98% |      694586     12.50%     62.48% |      695582     12.52%     74.99% |      694765     12.50%     87.50% |      694953     12.50%    100.00% (Unspecified)
system.caches.L2Cache_Controller.MT.L1_PUTX::total      5557635                       (Unspecified)
system.caches.L2Cache_Controller.MT.L2_Replacement |         519     16.50%     16.50% |         342     10.87%     27.37% |          68      2.16%     29.53% |         307      9.76%     39.29% |         273      8.68%     47.97% |         653     20.76%     68.72% |         400     12.71%     81.44% |         584     18.56%    100.00% (Unspecified)
system.caches.L2Cache_Controller.MT.L2_Replacement::total         3146                       (Unspecified)
system.caches.L2Cache_Controller.MT.L2_Replacement_clean |        4265     13.17%     13.17% |        4323     13.35%     26.52% |        3258     10.06%     36.58% |        3806     11.75%     48.34% |        4038     12.47%     60.81% |        4430     13.68%     74.49% |        4041     12.48%     86.97% |        4220     13.03%    100.00% (Unspecified)
system.caches.L2Cache_Controller.MT.L2_Replacement_clean::total        32381                       (Unspecified)
system.caches.L2Cache_Controller.M_I.L1_GET_INSTR |           0      0.00%      0.00% |           0      0.00%      0.00% |           0      0.00%      0.00% |           0      0.00%      0.00% |           0      0.00%      0.00% |           0      0.00%      0.00% |           7     63.64%     63.64% |           4     36.36%    100.00% (Unspecified)
system.caches.L2Cache_Controller.M_I.L1_GET_INSTR::total           11                       (Unspecified)
system.caches.L2Cache_Controller.M_I.L1_GETS |           2     28.57%     28.57% |           1     14.29%     42.86% |           0      0.00%     42.86% |           0      0.00%     42.86% |           0      0.00%     42.86% |           1     14.29%     57.14% |           2     28.57%     85.71% |           1     14.29%    100.00% (Unspecified)
system.caches.L2Cache_Controller.M_I.L1_GETS::total            7                       (Unspecified)
system.caches.L2Cache_Controller.M_I.L1_GETX |           3     21.43%     21.43% |           3     21.43%     42.86% |           0      0.00%     42.86% |           3     21.43%     64.29% |           2     14.29%     78.57% |           1      7.14%     85.71% |           0      0.00%     85.71% |           2     14.29%    100.00% (Unspecified)
system.caches.L2Cache_Controller.M_I.L1_GETX::total           14                       (Unspecified)
system.caches.L2Cache_Controller.M_I.L1_PUTX_old |           0      0.00%      0.00% |           0      0.00%      0.00% |           0      0.00%      0.00% |           0      0.00%      0.00% |           0      0.00%      0.00% |           0      0.00%      0.00% |           0      0.00%      0.00% |           1    100.00%    100.00% (Unspecified)
system.caches.L2Cache_Controller.M_I.L1_PUTX_old::total            1                       (Unspecified)
system.caches.L2Cache_Controller.M_I.Mem_Ack |      697935     12.51%     12.51% |      697684     12.50%     25.01% |      696429     12.48%     37.49% |      697132     12.49%     49.99% |      697375     12.50%     62.48% |      698207     12.51%     75.00% |      697426     12.50%     87.49% |      697787     12.51%    100.00% (Unspecified)
system.caches.L2Cache_Controller.M_I.Mem_Ack::total      5579975                       (Unspecified)
system.caches.L2Cache_Controller.MT_I.WB_Data |         518     16.52%     16.52% |         339     10.81%     27.33% |          67      2.14%     29.46% |         305      9.73%     39.19% |         272      8.67%     47.86% |         653     20.82%     68.69% |         399     12.72%     81.41% |         583     18.59%    100.00% (Unspecified)
system.caches.L2Cache_Controller.MT_I.WB_Data::total         3136                       (Unspecified)
system.caches.L2Cache_Controller.MT_I.Ack_all |           1     10.00%     10.00% |           3     30.00%     40.00% |           1     10.00%     50.00% |           2     20.00%     70.00% |           1     10.00%     80.00% |           0      0.00%     80.00% |           1     10.00%     90.00% |           1     10.00%    100.00% (Unspecified)
system.caches.L2Cache_Controller.MT_I.Ack_all::total           10                       (Unspecified)
system.caches.L2Cache_Controller.MCT_I.L1_PUTX_old |           0      0.00%      0.00% |           0      0.00%      0.00% |           1     50.00%     50.00% |           1     50.00%    100.00% |           0      0.00%    100.00% |           0      0.00%    100.00% |           0      0.00%    100.00% |           0      0.00%    100.00% (Unspecified)
system.caches.L2Cache_Controller.MCT_I.L1_PUTX_old::total            2                       (Unspecified)
system.caches.L2Cache_Controller.MCT_I.WB_Data |        2247     12.90%     12.90% |        2128     12.21%     25.11% |        1659      9.52%     34.63% |        2123     12.19%     46.82% |        2052     11.78%     58.60% |        2571     14.76%     73.36% |        2214     12.71%     86.06% |        2428     13.94%    100.00% (Unspecified)
system.caches.L2Cache_Controller.MCT_I.WB_Data::total        17422                       (Unspecified)
system.caches.L2Cache_Controller.MCT_I.WB_Data_clean |           0      0.00%      0.00% |           0      0.00%      0.00% |           0      0.00%      0.00% |           0      0.00%      0.00% |           0      0.00%      0.00% |           0      0.00%      0.00% |           0      0.00%      0.00% |           1    100.00%    100.00% (Unspecified)
system.caches.L2Cache_Controller.MCT_I.WB_Data_clean::total            1                       (Unspecified)
system.caches.L2Cache_Controller.MCT_I.Ack_all |        2018     13.49%     13.49% |        2195     14.67%     28.17% |        1599     10.69%     38.86% |        1683     11.25%     50.11% |        1986     13.28%     63.38% |        1859     12.43%     75.81% |        1827     12.21%     88.03% |        1791     11.97%    100.00% (Unspecified)
system.caches.L2Cache_Controller.MCT_I.Ack_all::total        14958                       (Unspecified)
system.caches.L2Cache_Controller.I_I.L1_GET_INSTR |           0      0.00%      0.00% |           0      0.00%      0.00% |           0      0.00%      0.00% |           0      0.00%      0.00% |           0      0.00%      0.00% |           0      0.00%      0.00% |           2    100.00%    100.00% |           0      0.00%    100.00% (Unspecified)
system.caches.L2Cache_Controller.I_I.L1_GET_INSTR::total            2                       (Unspecified)
system.caches.L2Cache_Controller.I_I.Ack |        4831     13.04%     13.04% |        4981     13.45%     26.49% |        4422     11.94%     38.43% |        3862     10.43%     48.85% |        5085     13.73%     62.58% |        5104     13.78%     76.36% |        4654     12.56%     88.93% |        4102     11.07%    100.00% (Unspecified)
system.caches.L2Cache_Controller.I_I.Ack::total        37041                       (Unspecified)
system.caches.L2Cache_Controller.I_I.Ack_all |         875     13.47%     13.47% |         890     13.70%     27.16% |         790     12.16%     39.32% |         697     10.73%     50.05% |         838     12.90%     62.94% |         845     13.00%     75.95% |         757     11.65%     87.60% |         806     12.40%    100.00% (Unspecified)
system.caches.L2Cache_Controller.I_I.Ack_all::total         6498                       (Unspecified)
system.caches.L2Cache_Controller.S_I.Ack |           7    100.00%    100.00% |           0      0.00%    100.00% |           0      0.00%    100.00% |           0      0.00%    100.00% |           0      0.00%    100.00% |           0      0.00%    100.00% |           0      0.00%    100.00% |           0      0.00%    100.00% (Unspecified)
system.caches.L2Cache_Controller.S_I.Ack::total            7                       (Unspecified)
system.caches.L2Cache_Controller.S_I.Ack_all |           1    100.00%    100.00% |           0      0.00%    100.00% |           0      0.00%    100.00% |           0      0.00%    100.00% |           0      0.00%    100.00% |           0      0.00%    100.00% |           0      0.00%    100.00% |           0      0.00%    100.00% (Unspecified)
system.caches.L2Cache_Controller.S_I.Ack_all::total            1                       (Unspecified)
system.caches.L2Cache_Controller.ISS.L1_GETS |           9     24.32%     24.32% |           6     16.22%     40.54% |           6     16.22%     56.76% |           4     10.81%     67.57% |           1      2.70%     70.27% |           5     13.51%     83.78% |           2      5.41%     89.19% |           4     10.81%    100.00% (Unspecified)
system.caches.L2Cache_Controller.ISS.L1_GETS::total           37                       (Unspecified)
system.caches.L2Cache_Controller.ISS.Mem_Data |      332012     12.51%     12.51% |      331904     12.50%     25.01% |      331329     12.48%     37.50% |      331643     12.49%     49.99% |      331689     12.50%     62.49% |      331966     12.51%     74.99% |      331771     12.50%     87.49% |      331937     12.51%    100.00% (Unspecified)
system.caches.L2Cache_Controller.ISS.Mem_Data::total      2654251                       (Unspecified)
system.caches.L2Cache_Controller.IS.L1_GET_INSTR |         484     10.40%     10.40% |         590     12.68%     23.08% |         534     11.48%     34.56% |         501     10.77%     45.33% |         572     12.29%     57.62% |         759     16.31%     73.93% |         730     15.69%     89.62% |         483     10.38%    100.00% (Unspecified)
system.caches.L2Cache_Controller.IS.L1_GET_INSTR::total         4653                       (Unspecified)
system.caches.L2Cache_Controller.IS.L1_GETS |          22     41.51%     41.51% |           8     15.09%     56.60% |           3      5.66%     62.26% |           6     11.32%     73.58% |           0      0.00%     73.58% |           6     11.32%     84.91% |           0      0.00%     84.91% |           8     15.09%    100.00% (Unspecified)
system.caches.L2Cache_Controller.IS.L1_GETS::total           53                       (Unspecified)
system.caches.L2Cache_Controller.IS.Mem_Data |         852     13.38%     13.38% |         872     13.69%     27.07% |         770     12.09%     39.16% |         691     10.85%     50.01% |         831     13.05%     63.06% |         831     13.05%     76.10% |         739     11.60%     87.71% |         783     12.29%    100.00% (Unspecified)
system.caches.L2Cache_Controller.IS.Mem_Data::total         6369                       (Unspecified)
system.caches.L2Cache_Controller.IM.Mem_Data |      365068     12.51%     12.51% |      364907     12.50%     25.00% |      364329     12.48%     37.48% |      364797     12.50%     49.98% |      364853     12.50%     62.48% |      365408     12.52%     75.00% |      364915     12.50%     87.49% |      365065     12.51%    100.00% (Unspecified)
system.caches.L2Cache_Controller.IM.Mem_Data::total      2919342                       (Unspecified)
system.caches.L2Cache_Controller.SS_MB.L1_GETS |           0      0.00%      0.00% |           0      0.00%      0.00% |           0      0.00%      0.00% |           0      0.00%      0.00% |           0      0.00%      0.00% |           0      0.00%      0.00% |         206    100.00%    100.00% |           0      0.00%    100.00% (Unspecified)
system.caches.L2Cache_Controller.SS_MB.L1_GETS::total          206                       (Unspecified)
system.caches.L2Cache_Controller.SS_MB.Exclusive_Unblock |         192     35.96%     35.96% |          95     17.79%     53.75% |           0      0.00%     53.75% |           0      0.00%     53.75% |           0      0.00%     53.75% |           0      0.00%     53.75% |         247     46.25%    100.00% |           0      0.00%    100.00% (Unspecified)
system.caches.L2Cache_Controller.SS_MB.Exclusive_Unblock::total          534                       (Unspecified)
system.caches.L2Cache_Controller.MT_MB.Exclusive_Unblock |      699858     12.51%     12.51% |      699562     12.51%     25.02% |      696828     12.46%     37.48% |      698398     12.49%     49.97% |      698902     12.50%     62.46% |      700664     12.53%     74.99% |      699223     12.50%     87.49% |      699771     12.51%    100.00% (Unspecified)
system.caches.L2Cache_Controller.MT_MB.Exclusive_Unblock::total      5593206                       (Unspecified)
system.caches.L2Cache_Controller.MT_IIB.L1_GETS |          18     20.45%     20.45% |          12     13.64%     34.09% |           0      0.00%     34.09% |           0      0.00%     34.09% |           0      0.00%     34.09% |           0      0.00%     34.09% |          58     65.91%    100.00% |           0      0.00%    100.00% (Unspecified)
system.caches.L2Cache_Controller.MT_IIB.L1_GETS::total           88                       (Unspecified)
system.caches.L2Cache_Controller.MT_IIB.WB_Data |         193     36.07%     36.07% |          95     17.76%     53.83% |           0      0.00%     53.83% |           0      0.00%     53.83% |           0      0.00%     53.83% |           0      0.00%     53.83% |         247     46.17%    100.00% |           0      0.00%    100.00% (Unspecified)
system.caches.L2Cache_Controller.MT_IIB.WB_Data::total          535                       (Unspecified)
system.caches.L2Cache_Controller.MT_IIB.WB_Data_clean |          23     22.12%     22.12% |          14     13.46%     35.58% |          17     16.35%     51.92% |           5      4.81%     56.73% |           6      5.77%     62.50% |          11     10.58%     73.08% |          12     11.54%     84.62% |          16     15.38%    100.00% (Unspecified)
system.caches.L2Cache_Controller.MT_IIB.WB_Data_clean::total          104                       (Unspecified)
system.caches.L2Cache_Controller.MT_SB.L1_GETS |           2     33.33%     33.33% |           1     16.67%     50.00% |           0      0.00%     50.00% |           0      0.00%     50.00% |           0      0.00%     50.00% |           1     16.67%     66.67% |           2     33.33%    100.00% |           0      0.00%    100.00% (Unspecified)
system.caches.L2Cache_Controller.MT_SB.L1_GETS::total            6                       (Unspecified)
system.caches.L2Cache_Controller.MT_SB.L1_UPGRADE |           0      0.00%      0.00% |           0      0.00%      0.00% |           0      0.00%      0.00% |           0      0.00%      0.00% |           0      0.00%      0.00% |           0      0.00%      0.00% |          63    100.00%    100.00% |           0      0.00%    100.00% (Unspecified)
system.caches.L2Cache_Controller.MT_SB.L1_UPGRADE::total           63                       (Unspecified)
system.caches.L2Cache_Controller.MT_SB.Unblock |         216     33.80%     33.80% |         109     17.06%     50.86% |          17      2.66%     53.52% |           5      0.78%     54.30% |           6      0.94%     55.24% |          11      1.72%     56.96% |         259     40.53%     97.50% |          16      2.50%    100.00% (Unspecified)
system.caches.L2Cache_Controller.MT_SB.Unblock::total          639                       (Unspecified)
system.caches.RequestType.LD.latency_hist_seqr::bucket_size         1024                       (Unspecified)
system.caches.RequestType.LD.latency_hist_seqr::max_bucket        10239                       (Unspecified)
system.caches.RequestType.LD.latency_hist_seqr::samples      6673185                       (Unspecified)
system.caches.RequestType.LD.latency_hist_seqr::mean   430.460953                       (Unspecified)
system.caches.RequestType.LD.latency_hist_seqr::gmean    15.617879                       (Unspecified)
system.caches.RequestType.LD.latency_hist_seqr::stdev   639.291101                       (Unspecified)
system.caches.RequestType.LD.latency_hist_seqr |     5515417     82.65%     82.65% |      974755     14.61%     97.26% |      161363      2.42%     99.68% |       21146      0.32%     99.99% |         501      0.01%    100.00% |           3      0.00%    100.00% |           0      0.00%    100.00% |           0      0.00%    100.00% |           0      0.00%    100.00% |           0      0.00%    100.00% (Unspecified)
system.caches.RequestType.LD.latency_hist_seqr::total      6673185                       (Unspecified)
system.caches.RequestType.LD.hit_latency_hist_seqr::bucket_size            1                       (Unspecified)
system.caches.RequestType.LD.hit_latency_hist_seqr::max_bucket            9                       (Unspecified)
system.caches.RequestType.LD.hit_latency_hist_seqr::samples      3977212                       (Unspecified)
system.caches.RequestType.LD.hit_latency_hist_seqr::mean     1.000059                       (Unspecified)
system.caches.RequestType.LD.hit_latency_hist_seqr::gmean     1.000041                       (Unspecified)
system.caches.RequestType.LD.hit_latency_hist_seqr::stdev     0.007654                       (Unspecified)
system.caches.RequestType.LD.hit_latency_hist_seqr |           0      0.00%      0.00% |     3976979     99.99%     99.99% |         233      0.01%    100.00% |           0      0.00%    100.00% |           0      0.00%    100.00% |           0      0.00%    100.00% |           0      0.00%    100.00% |           0      0.00%    100.00% |           0      0.00%    100.00% |           0      0.00%    100.00% (Unspecified)
system.caches.RequestType.LD.hit_latency_hist_seqr::total      3977212                       (Unspecified)
system.caches.RequestType.LD.miss_latency_hist_seqr::bucket_size         1024                       (Unspecified)
system.caches.RequestType.LD.miss_latency_hist_seqr::max_bucket        10239                       (Unspecified)
system.caches.RequestType.LD.miss_latency_hist_seqr::samples      2695973                       (Unspecified)
system.caches.RequestType.LD.miss_latency_hist_seqr::mean  1064.019606                       (Unspecified)
system.caches.RequestType.LD.miss_latency_hist_seqr::gmean   900.486365                       (Unspecified)
system.caches.RequestType.LD.miss_latency_hist_seqr::stdev   581.488613                       (Unspecified)
system.caches.RequestType.LD.miss_latency_hist_seqr |     1538205     57.06%     57.06% |      974755     36.16%     93.21% |      161363      5.99%     99.20% |       21146      0.78%     99.98% |         501      0.02%    100.00% |           3      0.00%    100.00% |           0      0.00%    100.00% |           0      0.00%    100.00% |           0      0.00%    100.00% |           0      0.00%    100.00% (Unspecified)
system.caches.RequestType.LD.miss_latency_hist_seqr::total      2695973                       (Unspecified)
system.caches.RequestType.ST.latency_hist_seqr::bucket_size         1024                       (Unspecified)
system.caches.RequestType.ST.latency_hist_seqr::max_bucket        10239                       (Unspecified)
system.caches.RequestType.ST.latency_hist_seqr::samples     23438302                       (Unspecified)
system.caches.RequestType.ST.latency_hist_seqr::mean   157.843842                       (Unspecified)
system.caches.RequestType.ST.latency_hist_seqr::gmean     2.412116                       (Unspecified)
system.caches.RequestType.ST.latency_hist_seqr::stdev   468.004063                       (Unspecified)
system.caches.RequestType.ST.latency_hist_seqr |    21750242     92.80%     92.80% |     1411293      6.02%     98.82% |      230000      0.98%     99.80% |       46336      0.20%    100.00% |         425      0.00%    100.00% |           6      0.00%    100.00% |           0      0.00%    100.00% |           0      0.00%    100.00% |           0      0.00%    100.00% |           0      0.00%    100.00% (Unspecified)
system.caches.RequestType.ST.latency_hist_seqr::total     23438302                       (Unspecified)
system.caches.RequestType.ST.hit_latency_hist_seqr::bucket_size          512                       (Unspecified)
system.caches.RequestType.ST.hit_latency_hist_seqr::max_bucket         5119                       (Unspecified)
system.caches.RequestType.ST.hit_latency_hist_seqr::samples     20517736                       (Unspecified)
system.caches.RequestType.ST.hit_latency_hist_seqr::mean     1.014767                       (Unspecified)
system.caches.RequestType.ST.hit_latency_hist_seqr::gmean     1.006011                       (Unspecified)
system.caches.RequestType.ST.hit_latency_hist_seqr::stdev     2.688959                       (Unspecified)
system.caches.RequestType.ST.hit_latency_hist_seqr |    20517614    100.00%    100.00% |          82      0.00%    100.00% |          26      0.00%    100.00% |           8      0.00%    100.00% |           3      0.00%    100.00% |           3      0.00%    100.00% |           0      0.00%    100.00% |           0      0.00%    100.00% |           0      0.00%    100.00% |           0      0.00%    100.00% (Unspecified)
system.caches.RequestType.ST.hit_latency_hist_seqr::total     20517736                       (Unspecified)
system.caches.RequestType.ST.miss_latency_hist_seqr::bucket_size         1024                       (Unspecified)
system.caches.RequestType.ST.miss_latency_hist_seqr::max_bucket        10239                       (Unspecified)
system.caches.RequestType.ST.miss_latency_hist_seqr::samples      2920566                       (Unspecified)
system.caches.RequestType.ST.miss_latency_hist_seqr::mean  1259.608899                       (Unspecified)
system.caches.RequestType.ST.miss_latency_hist_seqr::gmean  1123.464041                       (Unspecified)
system.caches.RequestType.ST.miss_latency_hist_seqr::stdev   609.121764                       (Unspecified)
system.caches.RequestType.ST.miss_latency_hist_seqr |     1232546     42.20%     42.20% |     1411259     48.32%     90.52% |      229994      7.87%     98.40% |       46336      1.59%     99.99% |         425      0.01%    100.00% |           6      0.00%    100.00% |           0      0.00%    100.00% |           0      0.00%    100.00% |           0      0.00%    100.00% |           0      0.00%    100.00% (Unspecified)
system.caches.RequestType.ST.miss_latency_hist_seqr::total      2920566                       (Unspecified)
system.caches.RequestType.IFETCH.latency_hist_seqr::bucket_size          512                       (Unspecified)
system.caches.RequestType.IFETCH.latency_hist_seqr::max_bucket         5119                       (Unspecified)
system.caches.RequestType.IFETCH.latency_hist_seqr::samples      7902080                       (Unspecified)
system.caches.RequestType.IFETCH.latency_hist_seqr::mean     1.479709                       (Unspecified)
system.caches.RequestType.IFETCH.latency_hist_seqr::gmean     1.023092                       (Unspecified)
system.caches.RequestType.IFETCH.latency_hist_seqr::stdev    15.152262                       (Unspecified)
system.caches.RequestType.IFETCH.latency_hist_seqr |     7901572     99.99%     99.99% |         199      0.00%    100.00% |         117      0.00%    100.00% |         122      0.00%    100.00% |          43      0.00%    100.00% |          18      0.00%    100.00% |           7      0.00%    100.00% |           2      0.00%    100.00% |           0      0.00%    100.00% |           0      0.00%    100.00% (Unspecified)
system.caches.RequestType.IFETCH.latency_hist_seqr::total      7902080                       (Unspecified)
system.caches.RequestType.IFETCH.hit_latency_hist_seqr::bucket_size            1                       (Unspecified)
system.caches.RequestType.IFETCH.hit_latency_hist_seqr::max_bucket            9                       (Unspecified)
system.caches.RequestType.IFETCH.hit_latency_hist_seqr::samples      7844795                       (Unspecified)
system.caches.RequestType.IFETCH.hit_latency_hist_seqr::mean     1.000000                       (Unspecified)
system.caches.RequestType.IFETCH.hit_latency_hist_seqr::gmean     1.000000                       (Unspecified)
system.caches.RequestType.IFETCH.hit_latency_hist_seqr::stdev     0.000357                       (Unspecified)
system.caches.RequestType.IFETCH.hit_latency_hist_seqr |           0      0.00%      0.00% |     7844794    100.00%    100.00% |           1      0.00%    100.00% |           0      0.00%    100.00% |           0      0.00%    100.00% |           0      0.00%    100.00% |           0      0.00%    100.00% |           0      0.00%    100.00% |           0      0.00%    100.00% |           0      0.00%    100.00% (Unspecified)
system.caches.RequestType.IFETCH.hit_latency_hist_seqr::total      7844795                       (Unspecified)
system.caches.RequestType.IFETCH.miss_latency_hist_seqr::bucket_size          512                       (Unspecified)
system.caches.RequestType.IFETCH.miss_latency_hist_seqr::max_bucket         5119                       (Unspecified)
system.caches.RequestType.IFETCH.miss_latency_hist_seqr::samples        57285                       (Unspecified)
system.caches.RequestType.IFETCH.miss_latency_hist_seqr::mean    67.172663                       (Unspecified)
system.caches.RequestType.IFETCH.miss_latency_hist_seqr::gmean    23.316854                       (Unspecified)
system.caches.RequestType.IFETCH.miss_latency_hist_seqr::stdev   165.299527                       (Unspecified)
system.caches.RequestType.IFETCH.miss_latency_hist_seqr |       56777     99.11%     99.11% |         199      0.35%     99.46% |         117      0.20%     99.66% |         122      0.21%     99.88% |          43      0.08%     99.95% |          18      0.03%     99.98% |           7      0.01%    100.00% |           2      0.00%    100.00% |           0      0.00%    100.00% |           0      0.00%    100.00% (Unspecified)
system.caches.RequestType.IFETCH.miss_latency_hist_seqr::total        57285                       (Unspecified)
system.caches.RequestType.RMW_Read.latency_hist_seqr::bucket_size          512                       (Unspecified)
system.caches.RequestType.RMW_Read.latency_hist_seqr::max_bucket         5119                       (Unspecified)
system.caches.RequestType.RMW_Read.latency_hist_seqr::samples        27828                       (Unspecified)
system.caches.RequestType.RMW_Read.latency_hist_seqr::mean    78.846629                       (Unspecified)
system.caches.RequestType.RMW_Read.latency_hist_seqr::gmean     2.844089                       (Unspecified)
system.caches.RequestType.RMW_Read.latency_hist_seqr::stdev   280.766221                       (Unspecified)
system.caches.RequestType.RMW_Read.latency_hist_seqr |       25792     92.68%     92.68% |        1362      4.89%     97.58% |         477      1.71%     99.29% |         115      0.41%     99.71% |          56      0.20%     99.91% |          21      0.08%     99.98% |           5      0.02%    100.00% |           0      0.00%    100.00% |           0      0.00%    100.00% |           0      0.00%    100.00% (Unspecified)
system.caches.RequestType.RMW_Read.latency_hist_seqr::total        27828                       (Unspecified)
system.caches.RequestType.RMW_Read.hit_latency_hist_seqr::bucket_size          512                       (Unspecified)
system.caches.RequestType.RMW_Read.hit_latency_hist_seqr::max_bucket         5119                       (Unspecified)
system.caches.RequestType.RMW_Read.hit_latency_hist_seqr::samples        22580                       (Unspecified)
system.caches.RequestType.RMW_Read.hit_latency_hist_seqr::mean    11.422586                       (Unspecified)
system.caches.RequestType.RMW_Read.hit_latency_hist_seqr::gmean     1.300431                       (Unspecified)
system.caches.RequestType.RMW_Read.hit_latency_hist_seqr::stdev   107.286462                       (Unspecified)
system.caches.RequestType.RMW_Read.hit_latency_hist_seqr |       22360     99.03%     99.03% |         146      0.65%     99.67% |          51      0.23%     99.90% |          14      0.06%     99.96% |           5      0.02%     99.98% |           3      0.01%    100.00% |           1      0.00%    100.00% |           0      0.00%    100.00% |           0      0.00%    100.00% |           0      0.00%    100.00% (Unspecified)
system.caches.RequestType.RMW_Read.hit_latency_hist_seqr::total        22580                       (Unspecified)
system.caches.RequestType.RMW_Read.miss_latency_hist_seqr::bucket_size          512                       (Unspecified)
system.caches.RequestType.RMW_Read.miss_latency_hist_seqr::max_bucket         5119                       (Unspecified)
system.caches.RequestType.RMW_Read.miss_latency_hist_seqr::samples         5248                       (Unspecified)
system.caches.RequestType.RMW_Read.miss_latency_hist_seqr::mean   368.944741                       (Unspecified)
system.caches.RequestType.RMW_Read.miss_latency_hist_seqr::gmean    82.452497                       (Unspecified)
[...]
system.o3Cpu7.iew.squashCycles                   6056                       # Number of cycles IEW is squashing (Cycle)
system.o3Cpu7.iew.blockCycles                18094175                       # Number of cycles IEW is blocking (Cycle)
system.o3Cpu7.iew.unblockCycles             199547981                       # Number of cycles IEW is unblocking (Cycle)
system.o3Cpu7.iew.dispatchedInsts            13314205                       # Number of instructions dispatched to IQ (Count)
system.o3Cpu7.iew.dispSquashedInsts              2192                       # Number of squashed instructions skipped by dispatch (Count)
system.o3Cpu7.iew.dispLoadInsts               2713179                       # Number of dispatched load instructions (Count)
system.o3Cpu7.iew.dispStoreInsts              2944934                       # Number of dispatched store instructions (Count)
system.o3Cpu7.iew.dispNonSpecInsts               3848                       # Number of dispatched non-speculative instructions (Count)
system.o3Cpu7.iew.iqFullEvents                  19516                       # Number of times the IQ has become full, causing a stall (Count)
system.o3Cpu7.iew.lsqFullEvents             199477673                       # Number of times the LSQ has become full, causing a stall (Count)
system.o3Cpu7.iew.memOrderViolationEvents          827                       # Number of memory order violations (Count)
system.o3Cpu7.iew.predictedTakenIncorrect         4131                       # Number of branches that were predicted taken incorrectly (Count)
system.o3Cpu7.iew.predictedNotTakenIncorrect         1039                       # Number of branches that were predicted not taken incorrectly (Count)
system.o3Cpu7.iew.branchMispredicts              5170                       # Number of branch mispredicts detected at execute (Count)
system.o3Cpu7.iew.instsToCommit              13266964                       # Cumulative count of insts sent to commit (Count)
system.o3Cpu7.iew.writebackCount             13266735                       # Cumulative count of insts written-back (Count)
system.o3Cpu7.iew.producerInst                6595469                       # Number of instructions producing a value (Count)
system.o3Cpu7.iew.consumerInst               12582597                       # Number of instructions consuming a value (Count)
system.o3Cpu7.iew.wbRate                     0.028309                       # Insts written-back per cycle ((Count/Cycle))
system.o3Cpu7.iew.wbFanout                   0.524174                       # Average fanout of values written-back ((Count/Count))
system.o3Cpu7.interrupts.clk_domain.clock         3200                       # Clock period in ticks (Tick)
system.o3Cpu7.lsq0.forwLoads                     8165                       # Number of loads that had data forwarded from stores (Count)
system.o3Cpu7.lsq0.squashedLoads                29407                       # Number of loads squashed (Count)
system.o3Cpu7.lsq0.ignoredResponses                 9                       # Number of memory responses ignored because the instruction is squashed (Count)
system.o3Cpu7.lsq0.memOrderViolation              827                       # Number of memory ordering violations (Count)
system.o3Cpu7.lsq0.squashedStores                5563                       # Number of stores squashed (Count)
system.o3Cpu7.lsq0.rescheduledLoads                82                       # Number of loads that were rescheduled (Count)
system.o3Cpu7.lsq0.blockedByCache               24694                       # Number of times an access to memory failed due to the cache being blocked (Count)
system.o3Cpu7.lsq0.loadToUse::samples         2683767                       # Distribution of cycle latency between the first time a load is issued and its completion (Unspecified)
system.o3Cpu7.lsq0.loadToUse::mean         640.808964                       # Distribution of cycle latency between the first time a load is issued and its completion (Unspecified)
system.o3Cpu7.lsq0.loadToUse::stdev        648.411594                       # Distribution of cycle latency between the first time a load is issued and its completion (Unspecified)
system.o3Cpu7.lsq0.loadToUse::0-9              812387     30.27%     30.27% # Distribution of cycle latency between the first time a load is issued and its completion (Unspecified)
system.o3Cpu7.lsq0.loadToUse::10-19              9415      0.35%     30.62% # Distribution of cycle latency between the first time a load is issued and its completion (Unspecified)
system.o3Cpu7.lsq0.loadToUse::20-29             17190      0.64%     31.26% # Distribution of cycle latency between the first time a load is issued and its completion (Unspecified)
system.o3Cpu7.lsq0.loadToUse::30-39             30641      1.14%     32.40% # Distribution of cycle latency between the first time a load is issued and its completion (Unspecified)
system.o3Cpu7.lsq0.loadToUse::40-49             46361      1.73%     34.13% # Distribution of cycle latency between the first time a load is issued and its completion (Unspecified)
system.o3Cpu7.lsq0.loadToUse::50-59              2480      0.09%     34.22% # Distribution of cycle latency between the first time a load is issued and its completion (Unspecified)
system.o3Cpu7.lsq0.loadToUse::60-69              4296      0.16%     34.38% # Distribution of cycle latency between the first time a load is issued and its completion (Unspecified)
system.o3Cpu7.lsq0.loadToUse::70-79              5038      0.19%     34.57% # Distribution of cycle latency between the first time a load is issued and its completion (Unspecified)
system.o3Cpu7.lsq0.loadToUse::80-89              5700      0.21%     34.78% # Distribution of cycle latency between the first time a load is issued and its completion (Unspecified)
system.o3Cpu7.lsq0.loadToUse::90-99              5147      0.19%     34.98% # Distribution of cycle latency between the first time a load is issued and its completion (Unspecified)
system.o3Cpu7.lsq0.loadToUse::100-109            2371      0.09%     35.06% # Distribution of cycle latency between the first time a load is issued and its completion (Unspecified)
system.o3Cpu7.lsq0.loadToUse::110-119            2260      0.08%     35.15% # Distribution of cycle latency between the first time a load is issued and its completion (Unspecified)
system.o3Cpu7.lsq0.loadToUse::120-129            2476      0.09%     35.24% # Distribution of cycle latency between the first time a load is issued and its completion (Unspecified)
system.o3Cpu7.lsq0.loadToUse::130-139            4061      0.15%     35.39% # Distribution of cycle latency between the first time a load is issued and its completion (Unspecified)
system.o3Cpu7.lsq0.loadToUse::140-149            3102      0.12%     35.51% # Distribution of cycle latency between the first time a load is issued and its completion (Unspecified)
system.o3Cpu7.lsq0.loadToUse::150-159            2499      0.09%     35.60% # Distribution of cycle latency between the first time a load is issued and its completion (Unspecified)
system.o3Cpu7.lsq0.loadToUse::160-169            1810      0.07%     35.67% # Distribution of cycle latency between the first time a load is issued and its completion (Unspecified)
system.o3Cpu7.lsq0.loadToUse::170-179            2389      0.09%     35.76% # Distribution of cycle latency between the first time a load is issued and its completion (Unspecified)
system.o3Cpu7.lsq0.loadToUse::180-189            3625      0.14%     35.89% # Distribution of cycle latency between the first time a load is issued and its completion (Unspecified)
system.o3Cpu7.lsq0.loadToUse::190-199            3264      0.12%     36.01% # Distribution of cycle latency between the first time a load is issued and its completion (Unspecified)
system.o3Cpu7.lsq0.loadToUse::200-209            2399      0.09%     36.10% # Distribution of cycle latency between the first time a load is issued and its completion (Unspecified)
system.o3Cpu7.lsq0.loadToUse::210-219            2133      0.08%     36.18% # Distribution of cycle latency between the first time a load is issued and its completion (Unspecified)
system.o3Cpu7.lsq0.loadToUse::220-229            2552      0.10%     36.28% # Distribution of cycle latency between the first time a load is issued and its completion (Unspecified)
system.o3Cpu7.lsq0.loadToUse::230-239            3891      0.14%     36.42% # Distribution of cycle latency between the first time a load is issued and its completion (Unspecified)
system.o3Cpu7.lsq0.loadToUse::240-249            3969      0.15%     36.57% # Distribution of cycle latency between the first time a load is issued and its completion (Unspecified)
system.o3Cpu7.lsq0.loadToUse::250-259            3515      0.13%     36.70% # Distribution of cycle latency between the first time a load is issued and its completion (Unspecified)
system.o3Cpu7.lsq0.loadToUse::260-269            2501      0.09%     36.79% # Distribution of cycle latency between the first time a load is issued and its completion (Unspecified)
system.o3Cpu7.lsq0.loadToUse::270-279            2678      0.10%     36.89% # Distribution of cycle latency between the first time a load is issued and its completion (Unspecified)
system.o3Cpu7.lsq0.loadToUse::280-289            3625      0.14%     37.03% # Distribution of cycle latency between the first time a load is issued and its completion (Unspecified)
system.o3Cpu7.lsq0.loadToUse::290-299            3959      0.15%     37.18% # Distribution of cycle latency between the first time a load is issued and its completion (Unspecified)
system.o3Cpu7.lsq0.loadToUse::overflows       1686033     62.82%    100.00% # Distribution of cycle latency between the first time a load is issued and its completion (Unspecified)
system.o3Cpu7.lsq0.loadToUse::min_value             2                       # Distribution of cycle latency between the first time a load is issued and its completion (Unspecified)
system.o3Cpu7.lsq0.loadToUse::max_value          5796                       # Distribution of cycle latency between the first time a load is issued and its completion (Unspecified)
system.o3Cpu7.lsq0.loadToUse::total           2683767                       # Distribution of cycle latency between the first time a load is issued and its completion (Unspecified)
system.o3Cpu7.mmu.dtb.rdAccesses              2700771                       # TLB accesses on read requests (Count)
system.o3Cpu7.mmu.dtb.wrAccesses              2945156                       # TLB accesses on write requests (Count)
system.o3Cpu7.mmu.dtb.rdMisses                   4371                       # TLB misses on read requests (Count)
system.o3Cpu7.mmu.dtb.wrMisses                   2750                       # TLB misses on write requests (Count)
system.o3Cpu7.mmu.dtb.walker.power_state.pwrStateResidencyTicks::UNDEFINED  95741254600                       # Cumulative time (in ticks) in various power states (Tick)
system.o3Cpu7.mmu.itb.rdAccesses                    0                       # TLB accesses on read requests (Count)
system.o3Cpu7.mmu.itb.wrAccesses              1006202                       # TLB accesses on write requests (Count)
system.o3Cpu7.mmu.itb.rdMisses                      0                       # TLB misses on read requests (Count)
system.o3Cpu7.mmu.itb.wrMisses                    210                       # TLB misses on write requests (Count)
system.o3Cpu7.mmu.itb.walker.power_state.pwrStateResidencyTicks::UNDEFINED  95741254600                       # Cumulative time (in ticks) in various power states (Tick)
system.o3Cpu7.power_state.pwrStateResidencyTicks::OFF  95741254600                       # Cumulative time (in ticks) in various power states (Tick)
system.o3Cpu7.rename.squashCycles                6056                       # Number of cycles rename is squashing (Cycle)
system.o3Cpu7.rename.idleCycles                970141                       # Number of cycles rename is idle (Cycle)
system.o3Cpu7.rename.blockCycles            217796361                       # Number of cycles rename is blocking (Cycle)
system.o3Cpu7.rename.serializeStallCycles       859797                       # count of cycles rename stalled for serializing inst (Cycle)
system.o3Cpu7.rename.runCycles                1279470                       # Number of cycles rename is running (Cycle)
system.o3Cpu7.rename.unblockCycles          247317929                       # Number of cycles rename is unblocking (Cycle)
system.o3Cpu7.rename.renamedInsts            13334615                       # Number of instructions processed by rename (Count)
system.o3Cpu7.rename.ROBFullEvents              35080                       # Number of times rename has blocked due to ROB full (Count)
system.o3Cpu7.rename.IQFullEvents             2432288                       # Number of times rename has blocked due to IQ full (Count)
system.o3Cpu7.rename.LQFullEvents               79715                       # Number of times rename has blocked due to LQ full (Count)
system.o3Cpu7.rename.SQFullEvents           246898551                       # Number of times rename has blocked due to SQ full (Count)
system.o3Cpu7.rename.renamedOperands         16361453                       # Number of destination operands rename has renamed (Count)
system.o3Cpu7.rename.lookups                 41912725                       # Number of register rename lookups that rename has made (Count)
system.o3Cpu7.rename.intLookups               9279658                       # Number of integer rename lookups (Count)
system.o3Cpu7.rename.fpLookups               12302968                       # Number of floating rename lookups (Count)
system.o3Cpu7.rename.committedMaps           16163002                       # Number of HB maps that are committed (Count)
system.o3Cpu7.rename.undoneMaps                198446                       # Number of HB maps that are undone due to squashing (Count)
system.o3Cpu7.rename.serializing                 4013                       # count of serializing insts renamed (Count)
system.o3Cpu7.rename.tempSerializing             4226                       # count of temporary serializing insts renamed (Count)
system.o3Cpu7.rename.skidInsts                5973587                       # count of insts added to the skid buffer (Count)
system.o3Cpu7.rob.reads                     480827784                       # The number of ROB reads (Count)
system.o3Cpu7.rob.writes                     26640392                       # The number of ROB writes (Count)
system.o3Cpu7.thread_0.numInsts               8126771                       # Number of Instructions committed (Count)
system.o3Cpu7.thread_0.numOps                13206550                       # Number of Ops committed (Count)
system.o3Cpu7.thread_0.numMemRefs                   0                       # Number of Memory References (Count)
system.pc.bad_addr.power_state.pwrStateResidencyTicks::UNDEFINED  95741254600                       # Cumulative time (in ticks) in various power states (Tick)
system.pc.com_1.power_state.pwrStateResidencyTicks::UNDEFINED  95741254600                       # Cumulative time (in ticks) in various power states (Tick)
system.pc.default_bus.power_state.pwrStateResidencyTicks::UNDEFINED  95741254600                       # Cumulative time (in ticks) in various power states (Tick)
system.pc.empty_isa.power_state.pwrStateResidencyTicks::UNDEFINED  95741254600                       # Cumulative time (in ticks) in various power states (Tick)
system.pc.fake_com_2.power_state.pwrStateResidencyTicks::UNDEFINED  95741254600                       # Cumulative time (in ticks) in various power states (Tick)
system.pc.fake_com_3.power_state.pwrStateResidencyTicks::UNDEFINED  95741254600                       # Cumulative time (in ticks) in various power states (Tick)
system.pc.fake_com_4.power_state.pwrStateResidencyTicks::UNDEFINED  95741254600                       # Cumulative time (in ticks) in various power states (Tick)
system.pc.fake_floppy.power_state.pwrStateResidencyTicks::UNDEFINED  95741254600                       # Cumulative time (in ticks) in various power states (Tick)
system.pc.pci_host.power_state.pwrStateResidencyTicks::UNDEFINED  95741254600                       # Cumulative time (in ticks) in various power states (Tick)
system.pc.south_bridge.cmos.power_state.pwrStateResidencyTicks::UNDEFINED  95741254600                       # Cumulative time (in ticks) in various power states (Tick)
system.pc.south_bridge.dma1.power_state.pwrStateResidencyTicks::UNDEFINED  95741254600                       # Cumulative time (in ticks) in various power states (Tick)
system.pc.south_bridge.ide.disks0.IdeDisk.dmaReadFullPages            0                       # Number of full page size DMA reads (not PRD). (Count)
system.pc.south_bridge.ide.disks0.IdeDisk.dmaReadBytes            0                       # Number of bytes transfered via DMA reads (not PRD). (Byte)
system.pc.south_bridge.ide.disks0.IdeDisk.dmaReadTxs            0                       # Number of DMA read transactions (not PRD). (Count)
system.pc.south_bridge.ide.disks0.IdeDisk.dmaWriteFullPages            0                       # Number of full page size DMA writes. (Count)
system.pc.south_bridge.ide.disks0.IdeDisk.dmaWriteBytes            0                       # Number of bytes transfered via DMA writes. (Byte)
system.pc.south_bridge.ide.disks0.IdeDisk.dmaWriteTxs            0                       # Number of DMA write transactions. (Count)
system.pc.south_bridge.ide.disks1.IdeDisk.dmaReadFullPages            0                       # Number of full page size DMA reads (not PRD). (Count)
system.pc.south_bridge.ide.disks1.IdeDisk.dmaReadBytes            0                       # Number of bytes transfered via DMA reads (not PRD). (Byte)
system.pc.south_bridge.ide.disks1.IdeDisk.dmaReadTxs            0                       # Number of DMA read transactions (not PRD). (Count)
system.pc.south_bridge.ide.disks1.IdeDisk.dmaWriteFullPages            0                       # Number of full page size DMA writes. (Count)
system.pc.south_bridge.ide.disks1.IdeDisk.dmaWriteBytes            0                       # Number of bytes transfered via DMA writes. (Byte)
system.pc.south_bridge.ide.disks1.IdeDisk.dmaWriteTxs            0                       # Number of DMA write transactions. (Count)
system.pc.south_bridge.ide.power_state.pwrStateResidencyTicks::UNDEFINED  95741254600                       # Cumulative time (in ticks) in various power states (Tick)
system.pc.south_bridge.io_apic.power_state.pwrStateResidencyTicks::UNDEFINED  95741254600                       # Cumulative time (in ticks) in various power states (Tick)
system.pc.south_bridge.keyboard.power_state.pwrStateResidencyTicks::UNDEFINED  95741254600                       # Cumulative time (in ticks) in various power states (Tick)
system.pc.south_bridge.pic1.power_state.pwrStateResidencyTicks::UNDEFINED  95741254600                       # Cumulative time (in ticks) in various power states (Tick)
system.pc.south_bridge.pic2.power_state.pwrStateResidencyTicks::UNDEFINED  95741254600                       # Cumulative time (in ticks) in various power states (Tick)
system.pc.south_bridge.pit.power_state.pwrStateResidencyTicks::UNDEFINED  95741254600                       # Cumulative time (in ticks) in various power states (Tick)
system.pc.south_bridge.speaker.power_state.pwrStateResidencyTicks::UNDEFINED  95741254600                       # Cumulative time (in ticks) in various power states (Tick)
system.workload.inst.arm                            0                       # number of arm instructions executed (Count)
system.workload.inst.quiesce                        0                       # number of quiesce instructions executed (Count)

---------- End Simulation Statistics   ----------
