
---------- Begin Simulation Statistics ----------
simSeconds                                   0.058668                       # Number of seconds simulated (Second)
simTicks                                  58668376300                       # Number of ticks simulated (Tick)
finalTick                                2997393166001000                       # Number of ticks from beginning of simulation (restored from checkpoints and never reset) (Tick)
simFreq                                  1000000000000                       # The number of ticks per simulated second ((Tick/Second))
hostSeconds                                   7271.06                       # Real time elapsed on the host (Second)
hostTickRate                                  8068753                       # The number of ticks simulated per host second (ticks/s) ((Tick/Second))
hostMemory                                   71995996                       # Number of bytes of host memory used (Byte)
simInsts                                    197312746                       # Number of instructions simulated (Count)
simOps                                      337605074                       # Number of ops (including micro ops) simulated (Count)
hostInstRate                                    27137                       # Simulator instruction rate (inst/s) ((Count/Second))
hostOpRate                                      46431                       # Simulator op (including micro ops) rate (op/s) ((Count/Second))
system.caches.delayHistogram::bucket_size           64                       # delay histogram for all message (Unspecified)
system.caches.delayHistogram::max_bucket          639                       # delay histogram for all message (Unspecified)
system.caches.delayHistogram::samples        82840169                       # delay histogram for all message (Unspecified)
system.caches.delayHistogram::mean           0.307106                       # delay histogram for all message (Unspecified)
system.caches.delayHistogram::stdev          1.438782                       # delay histogram for all message (Unspecified)
system.caches.delayHistogram             |    82840069    100.00%    100.00% |          89      0.00%    100.00% |           3      0.00%    100.00% |           3      0.00%    100.00% |           1      0.00%    100.00% |           3      0.00%    100.00% |           0      0.00%    100.00% |           1      0.00%    100.00% |           0      0.00%    100.00% |           0      0.00%    100.00% # delay histogram for all message (Unspecified)
system.caches.delayHistogram::total          82840169                       # delay histogram for all message (Unspecified)
system.caches.m_outstandReqHistSeqr::bucket_size            2                       (Unspecified)
system.caches.m_outstandReqHistSeqr::max_bucket           19                       (Unspecified)
system.caches.m_outstandReqHistSeqr::samples    133092063                       (Unspecified)
system.caches.m_outstandReqHistSeqr::mean     2.943825                       (Unspecified)
system.caches.m_outstandReqHistSeqr::gmean     2.554569                       (Unspecified)
system.caches.m_outstandReqHistSeqr::stdev     1.549876                       (Unspecified)
system.caches.m_outstandReqHistSeqr      |    22832138     17.16%     17.16% |    71209546     53.50%     70.66% |    29996571     22.54%     93.20% |     8055314      6.05%     99.25% |      768549      0.58%     99.83% |      187467      0.14%     99.97% |       23293      0.02%     99.99% |       18701      0.01%    100.00% |         484      0.00%    100.00% |           0      0.00%    100.00% (Unspecified)
system.caches.m_outstandReqHistSeqr::total    133092063                       (Unspecified)
system.caches.m_latencyHistSeqr::bucket_size          512                       (Unspecified)
system.caches.m_latencyHistSeqr::max_bucket         5119                       (Unspecified)
system.caches.m_latencyHistSeqr::samples    133098674                       (Unspecified)
system.caches.m_latencyHistSeqr::mean       31.339305                       (Unspecified)
system.caches.m_latencyHistSeqr::gmean       1.655499                       (Unspecified)
system.caches.m_latencyHistSeqr::stdev     130.800694                       (Unspecified)
system.caches.m_latencyHistSeqr          |   130878843     98.33%     98.33% |     2097814      1.58%     99.91% |       12642      0.01%     99.92% |       14992      0.01%     99.93% |       82638      0.06%     99.99% |       11518      0.01%    100.00% |         213      0.00%    100.00% |          14      0.00%    100.00% |           0      0.00%    100.00% |           0      0.00%    100.00% (Unspecified)
system.caches.m_latencyHistSeqr::total      133098674                       (Unspecified)
system.caches.m_hitLatencyHistSeqr::bucket_size          512                       (Unspecified)
system.caches.m_hitLatencyHistSeqr::max_bucket         5119                       (Unspecified)
system.caches.m_hitLatencyHistSeqr::samples    118491361                       (Unspecified)
system.caches.m_hitLatencyHistSeqr::mean     1.005033                       (Unspecified)
system.caches.m_hitLatencyHistSeqr::gmean     1.000401                       (Unspecified)
system.caches.m_hitLatencyHistSeqr::stdev     2.081194                       (Unspecified)
system.caches.m_hitLatencyHistSeqr       |   118491015    100.00%    100.00% |         215      0.00%    100.00% |          54      0.00%    100.00% |          66      0.00%    100.00% |           6      0.00%    100.00% |           2      0.00%    100.00% |           3      0.00%    100.00% |           0      0.00%    100.00% |           0      0.00%    100.00% |           0      0.00%    100.00% (Unspecified)
system.caches.m_hitLatencyHistSeqr::total    118491361                       (Unspecified)
system.caches.m_missLatencyHistSeqr::bucket_size          512                       (Unspecified)
system.caches.m_missLatencyHistSeqr::max_bucket         5119                       (Unspecified)
system.caches.m_missLatencyHistSeqr::samples     14607313                       (Unspecified)
system.caches.m_missLatencyHistSeqr::mean   277.404354                       (Unspecified)
system.caches.m_missLatencyHistSeqr::gmean    98.496422                       (Unspecified)
system.caches.m_missLatencyHistSeqr::stdev   296.385787                       (Unspecified)
system.caches.m_missLatencyHistSeqr      |    12387828     84.81%     84.81% |     2097599     14.36%     99.17% |       12588      0.09%     99.25% |       14926      0.10%     99.35% |       82632      0.57%     99.92% |       11516      0.08%    100.00% |         210      0.00%    100.00% |          14      0.00%    100.00% |           0      0.00%    100.00% |           0      0.00%    100.00% (Unspecified)
system.caches.m_missLatencyHistSeqr::total     14607313                       (Unspecified)
system.caches.delayVCHist.vnet_0::bucket_size           64                       # delay histogram for vnet_0 (Unspecified)
system.caches.delayVCHist.vnet_0::max_bucket          639                       # delay histogram for vnet_0 (Unspecified)
system.caches.delayVCHist.vnet_0::samples     33995306                       # delay histogram for vnet_0 (Unspecified)
system.caches.delayVCHist.vnet_0::mean       0.311131                       # delay histogram for vnet_0 (Unspecified)
system.caches.delayVCHist.vnet_0::stdev      1.569492                       # delay histogram for vnet_0 (Unspecified)
system.caches.delayVCHist.vnet_0         |    33995206    100.00%    100.00% |          89      0.00%    100.00% |           3      0.00%    100.00% |           3      0.00%    100.00% |           1      0.00%    100.00% |           3      0.00%    100.00% |           0      0.00%    100.00% |           1      0.00%    100.00% |           0      0.00%    100.00% |           0      0.00%    100.00% # delay histogram for vnet_0 (Unspecified)
system.caches.delayVCHist.vnet_0::total      33995306                       # delay histogram for vnet_0 (Unspecified)
system.caches.delayVCHist.vnet_1::bucket_size            4                       # delay histogram for vnet_1 (Unspecified)
system.caches.delayVCHist.vnet_1::max_bucket           39                       # delay histogram for vnet_1 (Unspecified)
system.caches.delayVCHist.vnet_1::samples     44064121                       # delay histogram for vnet_1 (Unspecified)
system.caches.delayVCHist.vnet_1::mean       0.337245                       # delay histogram for vnet_1 (Unspecified)
system.caches.delayVCHist.vnet_1::stdev      1.407151                       # delay histogram for vnet_1 (Unspecified)
system.caches.delayVCHist.vnet_1         |    42095964     95.53%     95.53% |     1392211      3.16%     98.69% |      489169      1.11%     99.80% |       68787      0.16%     99.96% |       17670      0.04%    100.00% |         247      0.00%    100.00% |          70      0.00%    100.00% |           3      0.00%    100.00% |           0      0.00%    100.00% |           0      0.00%    100.00% # delay histogram for vnet_1 (Unspecified)
system.caches.delayVCHist.vnet_1::total      44064121                       # delay histogram for vnet_1 (Unspecified)
system.caches.delayVCHist.vnet_2::bucket_size            1                       # delay histogram for vnet_2 (Unspecified)
system.caches.delayVCHist.vnet_2::max_bucket            9                       # delay histogram for vnet_2 (Unspecified)
system.caches.delayVCHist.vnet_2::samples      4780742                       # delay histogram for vnet_2 (Unspecified)
system.caches.delayVCHist.vnet_2::mean       0.000679                       # delay histogram for vnet_2 (Unspecified)
system.caches.delayVCHist.vnet_2::stdev      0.036855                       # delay histogram for vnet_2 (Unspecified)
system.caches.delayVCHist.vnet_2         |     4779121     99.97%     99.97% |           0      0.00%     99.97% |        1620      0.03%    100.00% |           0      0.00%    100.00% |           1      0.00%    100.00% |           0      0.00%    100.00% |           0      0.00%    100.00% |           0      0.00%    100.00% |           0      0.00%    100.00% |           0      0.00%    100.00% # delay histogram for vnet_2 (Unspecified)
system.caches.delayVCHist.vnet_2::total       4780742                       # delay histogram for vnet_2 (Unspecified)
system.caches.L1Cache_Controller.Load    |    12025399     12.46%     12.46% |    12013561     12.45%     24.91% |    12160941     12.60%     37.50% |    12053654     12.49%     49.99% |    12180271     12.62%     62.61% |    12041379     12.48%     75.09% |    12038225     12.47%     87.56% |    12008559     12.44%    100.00% (Unspecified)
system.caches.L1Cache_Controller.Load::total     96521989                       (Unspecified)
system.caches.L1Cache_Controller.Ifetch  |     4163481     12.49%     12.49% |     4101432     12.31%     24.80% |     4150768     12.45%     37.25% |     4139197     12.42%     49.67% |     4212997     12.64%     62.31% |     4227814     12.69%     75.00% |     4124638     12.38%     87.37% |     4208574     12.63%    100.00% (Unspecified)
system.caches.L1Cache_Controller.Ifetch::total     33328901                       (Unspecified)
system.caches.L1Cache_Controller.Store   |      425841     13.11%     13.11% |      390494     12.02%     25.13% |      408084     12.56%     37.70% |      405071     12.47%     50.17% |      416292     12.82%     62.99% |      414827     12.77%     75.76% |      396706     12.21%     87.98% |      390494     12.02%    100.00% (Unspecified)
system.caches.L1Cache_Controller.Store::total      3247809                       (Unspecified)
system.caches.L1Cache_Controller.Inv     |      473513     12.71%     12.71% |      467106     12.53%     25.24% |      465432     12.49%     37.73% |      466845     12.53%     50.25% |      463769     12.44%     62.70% |      465071     12.48%     75.17% |      461893     12.39%     87.57% |      463350     12.43%    100.00% (Unspecified)
system.caches.L1Cache_Controller.Inv::total      3726979                       (Unspecified)
system.caches.L1Cache_Controller.L1_Replacement |     1794510     12.42%     12.42% |     1789348     12.39%     24.81% |     1794684     12.42%     37.23% |     1796042     12.43%     49.66% |     1821544     12.61%     62.27% |     1824410     12.63%     74.90% |     1784440     12.35%     87.25% |     1842151     12.75%    100.00% (Unspecified)
system.caches.L1Cache_Controller.L1_Replacement::total     14447129                       (Unspecified)
system.caches.L1Cache_Controller.Fwd_GETX |          68     11.35%     11.35% |          87     14.52%     25.88% |          63     10.52%     36.39% |          88     14.69%     51.09% |          85     14.19%     65.28% |          66     11.02%     76.29% |         107     17.86%     94.16% |          35      5.84%    100.00% (Unspecified)
system.caches.L1Cache_Controller.Fwd_GETX::total          599                       (Unspecified)
system.caches.L1Cache_Controller.Fwd_GETS |      137084     13.02%     13.02% |      130253     12.37%     25.38% |      128950     12.24%     37.63% |      132131     12.55%     50.17% |      131614     12.50%     62.67% |      131865     12.52%     75.19% |      130446     12.39%     87.58% |      130821     12.42%    100.00% (Unspecified)
system.caches.L1Cache_Controller.Fwd_GETS::total      1053164                       (Unspecified)
system.caches.L1Cache_Controller.Data    |          94     71.76%     71.76% |           3      2.29%     74.05% |           4      3.05%     77.10% |           9      6.87%     83.97% |           5      3.82%     87.79% |           1      0.76%     88.55% |          12      9.16%     97.71% |           3      2.29%    100.00% (Unspecified)
system.caches.L1Cache_Controller.Data::total          131                       (Unspecified)
system.caches.L1Cache_Controller.Data_Exclusive |     1175847     12.42%     12.42% |     1174007     12.40%     24.83% |     1170219     12.36%     37.19% |     1172869     12.39%     49.59% |     1191661     12.59%     62.18% |     1199188     12.67%     74.85% |     1167027     12.33%     87.18% |     1213369     12.82%    100.00% (Unspecified)
system.caches.L1Cache_Controller.Data_Exclusive::total      9464187                       (Unspecified)
system.caches.L1Cache_Controller.DataS_fromL1 |      131553     12.49%     12.49% |      134772     12.80%     25.29% |      132451     12.58%     37.86% |      130569     12.40%     50.26% |      131816     12.52%     62.78% |      131530     12.49%     75.27% |      130103     12.35%     87.62% |      130370     12.38%    100.00% (Unspecified)
system.caches.L1Cache_Controller.DataS_fromL1::total      1053164                       (Unspecified)
system.caches.L1Cache_Controller.Data_all_Acks |      501286     12.39%     12.39% |      494865     12.24%     24.63% |      505911     12.51%     37.14% |      507330     12.54%     49.68% |      512146     12.66%     62.35% |      508738     12.58%     74.92% |      501845     12.41%     87.33% |      512313     12.67%    100.00% (Unspecified)
system.caches.L1Cache_Controller.Data_all_Acks::total      4044434                       (Unspecified)
system.caches.L1Cache_Controller.Ack     |       12878     13.23%     13.23% |       11678     11.99%     25.22% |       11849     12.17%     37.39% |       11771     12.09%     49.48% |       12291     12.62%     62.10% |       12159     12.49%     74.59% |       12251     12.58%     87.17% |       12491     12.83%    100.00% (Unspecified)
system.caches.L1Cache_Controller.Ack::total        97368                       (Unspecified)
system.caches.L1Cache_Controller.Ack_all |        5996     13.17%     13.17% |        5698     12.52%     25.69% |        5639     12.39%     38.07% |        5484     12.05%     50.12% |        5602     12.30%     62.42% |        5637     12.38%     74.80% |        5685     12.49%     87.29% |        5787     12.71%    100.00% (Unspecified)
system.caches.L1Cache_Controller.Ack_all::total        45528                       (Unspecified)
system.caches.L1Cache_Controller.WB_Ack  |     1051996     12.40%     12.40% |     1050462     12.38%     24.78% |     1049915     12.37%     37.15% |     1048088     12.35%     49.50% |     1070701     12.62%     62.12% |     1077231     12.69%     74.81% |     1043879     12.30%     87.11% |     1093780     12.89%    100.00% (Unspecified)
system.caches.L1Cache_Controller.WB_Ack::total      8486052                       (Unspecified)
system.caches.L1Cache_Controller.NP.Load |     1731637     12.38%     12.38% |     1734263     12.40%     24.78% |     1735076     12.41%     37.19% |     1737038     12.42%     49.61% |     1763849     12.61%     62.22% |     1767608     12.64%     74.86% |     1728241     12.36%     87.22% |     1787071     12.78%    100.00% (Unspecified)
system.caches.L1Cache_Controller.NP.Load::total     13984783                       (Unspecified)
system.caches.L1Cache_Controller.NP.Ifetch |       20358     15.41%     15.41% |       14948     11.32%     26.73% |       18120     13.72%     40.45% |       17902     13.55%     54.00% |       16210     12.27%     66.27% |       15114     11.44%     77.71% |       15483     11.72%     89.43% |       13959     10.57%    100.00% (Unspecified)
system.caches.L1Cache_Controller.NP.Ifetch::total       132094                       (Unspecified)
system.caches.L1Cache_Controller.NP.Store |       42603     12.89%     12.89% |       40184     12.15%     25.04% |       41503     12.55%     37.59% |       41168     12.45%     50.05% |       41521     12.56%     62.61% |       41738     12.62%     75.23% |       40728     12.32%     87.55% |       41158     12.45%    100.00% (Unspecified)
system.caches.L1Cache_Controller.NP.Store::total       330603                       (Unspecified)
system.caches.L1Cache_Controller.NP.Inv  |      406565     12.68%     12.68% |      400989     12.50%     25.18% |      399615     12.46%     37.65% |      400028     12.47%     50.12% |      400694     12.50%     62.62% |      401633     12.52%     75.14% |      395454     12.33%     87.47% |      401735     12.53%    100.00% (Unspecified)
system.caches.L1Cache_Controller.NP.Inv::total      3206713                       (Unspecified)
system.caches.L1Cache_Controller.I.Load  |        7441     12.97%     12.97% |        6947     12.11%     25.08% |        7146     12.45%     37.53% |        7729     13.47%     51.00% |        6749     11.76%     62.76% |        7512     13.09%     75.86% |        7452     12.99%     88.85% |        6400     11.15%    100.00% (Unspecified)
system.caches.L1Cache_Controller.I.Load::total        57376                       (Unspecified)
system.caches.L1Cache_Controller.I.Ifetch |        5656     11.66%     11.66% |        6214     12.81%     24.48% |        5638     11.63%     36.10% |        5909     12.19%     48.29% |        6207     12.80%     61.09% |        6472     13.35%     74.43% |        6052     12.48%     86.91% |        6346     13.09%    100.00% (Unspecified)
system.caches.L1Cache_Controller.I.Ifetch::total        48494                       (Unspecified)
system.caches.L1Cache_Controller.I.Store |        1087     12.69%     12.69% |        1091     12.73%     25.42% |        1102     12.86%     38.28% |        1032     12.04%     50.33% |        1091     12.73%     63.06% |        1014     11.83%     74.89% |        1030     12.02%     86.92% |        1121     13.08%    100.00% (Unspecified)
system.caches.L1Cache_Controller.I.Store::total         8568                       (Unspecified)
system.caches.L1Cache_Controller.I.L1_Replacement |       52634     12.24%     12.24% |       55411     12.88%     25.12% |       55405     12.88%     38.00% |       55637     12.94%     50.94% |       52433     12.19%     63.13% |       51947     12.08%     75.20% |       55455     12.89%     88.10% |       51198     11.90%    100.00% (Unspecified)
system.caches.L1Cache_Controller.I.L1_Replacement::total       430120                       (Unspecified)
system.caches.L1Cache_Controller.S.Load  |     3981169     12.69%     12.69% |     4036927     12.86%     25.55% |     4031674     12.85%     38.40% |     4020577     12.81%     51.21% |     3955643     12.61%     63.82% |     3916036     12.48%     76.30% |     3677495     11.72%     88.01% |     3761332     11.99%    100.00% (Unspecified)
system.caches.L1Cache_Controller.S.Load::total     31380853                       (Unspecified)
system.caches.L1Cache_Controller.S.Ifetch |     4137467     12.48%     12.48% |     4080270     12.31%     24.79% |     4127010     12.45%     37.24% |     4115386     12.42%     49.66% |     4190580     12.64%     62.30% |     4206228     12.69%     74.99% |     4103103     12.38%     87.37% |     4188269     12.63%    100.00% (Unspecified)
system.caches.L1Cache_Controller.S.Ifetch::total     33148313                       (Unspecified)
system.caches.L1Cache_Controller.S.Store |        5902     13.00%     13.00% |        5697     12.55%     25.54% |        5636     12.41%     37.96% |        5476     12.06%     50.02% |        5599     12.33%     62.35% |        5637     12.41%     74.76% |        5675     12.50%     87.26% |        5785     12.74%    100.00% (Unspecified)
system.caches.L1Cache_Controller.S.Store::total        45407                       (Unspecified)
system.caches.L1Cache_Controller.S.Inv   |       29011     12.88%     12.88% |       28179     12.51%     25.39% |       28514     12.66%     38.04% |       28821     12.79%     50.84% |       27757     12.32%     63.16% |       27308     12.12%     75.28% |       28591     12.69%     87.97% |       27100     12.03%    100.00% (Unspecified)
system.caches.L1Cache_Controller.S.Inv::total       225281                       (Unspecified)
system.caches.L1Cache_Controller.S.L1_Replacement |      689878     12.47%     12.47% |      683474     12.36%     24.83% |      689359     12.46%     37.29% |      692314     12.52%     49.81% |      698409     12.63%     62.44% |      695231     12.57%     75.01% |      685102     12.39%     87.40% |      697170     12.60%    100.00% (Unspecified)
system.caches.L1Cache_Controller.S.L1_Replacement::total      5530937                       (Unspecified)
system.caches.L1Cache_Controller.E.Load  |     3314404     12.40%     12.40% |     3244574     12.14%     24.55% |     3434174     12.85%     37.40% |     3187878     11.93%     49.33% |     3364779     12.59%     61.92% |     3205394     12.00%     73.92% |     3521755     13.18%     87.10% |     3447955     12.90%    100.00% (Unspecified)
system.caches.L1Cache_Controller.E.Load::total     26720913                       (Unspecified)
system.caches.L1Cache_Controller.E.Store |       70836     12.53%     12.53% |       69789     12.34%     24.87% |       69589     12.31%     37.18% |       69371     12.27%     49.44% |       71198     12.59%     62.03% |       72103     12.75%     74.79% |       69245     12.25%     87.03% |       73332     12.97%    100.00% (Unspecified)
system.caches.L1Cache_Controller.E.Store::total       565463                       (Unspecified)
system.caches.L1Cache_Controller.E.Inv   |       28331     12.75%     12.75% |       28783     12.95%     25.70% |       28706     12.92%     38.61% |       28419     12.79%     51.40% |       27035     12.16%     63.56% |       26630     11.98%     75.54% |       28386     12.77%     88.32% |       25971     11.68%    100.00% (Unspecified)
system.caches.L1Cache_Controller.E.Inv::total       222261                       (Unspecified)
system.caches.L1Cache_Controller.E.L1_Replacement |      942868     12.34%     12.34% |      947584     12.40%     24.73% |      945171     12.37%     37.10% |      945211     12.37%     49.47% |      964233     12.62%     62.08% |      970961     12.70%     74.79% |      941293     12.32%     87.10% |      985648     12.90%    100.00% (Unspecified)
system.caches.L1Cache_Controller.E.L1_Replacement::total      7642969                       (Unspecified)
system.caches.L1Cache_Controller.E.Fwd_GETX |           3      6.82%      6.82% |           7     15.91%     22.73% |           3      6.82%     29.55% |           5     11.36%     40.91% |           1      2.27%     43.18% |           3      6.82%     50.00% |          12     27.27%     77.27% |          10     22.73%    100.00% (Unspecified)
system.caches.L1Cache_Controller.E.Fwd_GETX::total           44                       (Unspecified)
system.caches.L1Cache_Controller.E.Fwd_GETS |      131904     12.97%     12.97% |      125839     12.37%     25.34% |      124697     12.26%     37.60% |      127788     12.56%     50.16% |      127195     12.50%     62.66% |      127435     12.53%     75.19% |      126048     12.39%     87.58% |      126346     12.42%    100.00% (Unspecified)
system.caches.L1Cache_Controller.E.Fwd_GETS::total      1017252                       (Unspecified)
system.caches.L1Cache_Controller.M.Load  |     2990747     12.27%     12.27% |     2990850     12.27%     24.54% |     2952869     12.11%     36.65% |     3100431     12.72%     49.37% |     3089250     12.67%     62.04% |     3144829     12.90%     74.94% |     3103281     12.73%     87.67% |     3005801     12.33%    100.00% (Unspecified)
system.caches.L1Cache_Controller.M.Load::total     24378058                       (Unspecified)
system.caches.L1Cache_Controller.M.Store |      305412     13.29%     13.29% |      273731     11.91%     25.20% |      290252     12.63%     37.84% |      288024     12.53%     50.37% |      296883     12.92%     63.29% |      294335     12.81%     76.10% |      280027     12.19%     88.29% |      269097     11.71%    100.00% (Unspecified)
system.caches.L1Cache_Controller.M.Store::total      2297761                       (Unspecified)
system.caches.L1Cache_Controller.M.Inv   |        9602     13.24%     13.24% |        9125     12.58%     25.81% |        8558     11.80%     37.61% |        9544     13.16%     50.77% |        8276     11.41%     62.17% |        9493     13.09%     75.26% |        9408     12.97%     88.23% |        8541     11.77%    100.00% (Unspecified)
system.caches.L1Cache_Controller.M.Inv::total        72547                       (Unspecified)
system.caches.L1Cache_Controller.M.L1_Replacement |      109128     12.94%     12.94% |      102878     12.20%     25.15% |      104744     12.42%     37.57% |      102877     12.20%     49.77% |      106468     12.63%     62.40% |      106270     12.60%     75.01% |      102586     12.17%     87.17% |      108133     12.83%    100.00% (Unspecified)
system.caches.L1Cache_Controller.M.L1_Replacement::total       843084                       (Unspecified)
system.caches.L1Cache_Controller.M.Fwd_GETX |          65     11.71%     11.71% |          80     14.41%     26.13% |          60     10.81%     36.94% |          83     14.95%     51.89% |          84     15.14%     67.03% |          63     11.35%     78.38% |          95     17.12%     95.50% |          25      4.50%    100.00% (Unspecified)
system.caches.L1Cache_Controller.M.Fwd_GETX::total          555                       (Unspecified)
system.caches.L1Cache_Controller.M.Fwd_GETS |        5178     14.43%     14.43% |        4413     12.29%     26.72% |        4249     11.84%     38.56% |        4341     12.09%     50.65% |        4416     12.30%     62.95% |        4428     12.34%     75.29% |        4397     12.25%     87.54% |        4474     12.46%    100.00% (Unspecified)
system.caches.L1Cache_Controller.M.Fwd_GETS::total        35896                       (Unspecified)
system.caches.L1Cache_Controller.IS.Inv  |           0      0.00%      0.00% |          27     18.24%     18.24% |          36     24.32%     42.57% |          30     20.27%     62.84% |           4      2.70%     65.54% |           2      1.35%     66.89% |          48     32.43%     99.32% |           1      0.68%    100.00% (Unspecified)
system.caches.L1Cache_Controller.IS.Inv::total          148                       (Unspecified)
system.caches.L1Cache_Controller.IS.L1_Replacement |           2     28.57%     28.57% |           0      0.00%     28.57% |           1     14.29%     42.86% |           2     28.57%     71.43% |           0      0.00%     71.43% |           0      0.00%     71.43% |           2     28.57%    100.00% |           0      0.00%    100.00% (Unspecified)
system.caches.L1Cache_Controller.IS.L1_Replacement::total            7                       (Unspecified)
system.caches.L1Cache_Controller.IS.Data_Exclusive |     1175847     12.42%     12.42% |     1174007     12.40%     24.83% |     1170218     12.36%     37.19% |     1172869     12.39%     49.59% |     1191660     12.59%     62.18% |     1199187     12.67%     74.85% |     1167026     12.33%     87.18% |     1213369     12.82%    100.00% (Unspecified)
system.caches.L1Cache_Controller.IS.Data_Exclusive::total      9464183                       (Unspecified)
system.caches.L1Cache_Controller.IS.DataS_fromL1 |      131553     12.49%     12.49% |      134772     12.80%     25.29% |      132451     12.58%     37.86% |      130569     12.40%     50.26% |      131816     12.52%     62.78% |      131530     12.49%     75.27% |      130103     12.35%     87.62% |      130370     12.38%    100.00% (Unspecified)
system.caches.L1Cache_Controller.IS.DataS_fromL1::total      1053164                       (Unspecified)
system.caches.L1Cache_Controller.IS.Data_all_Acks |      457690     12.35%     12.35% |      453564     12.24%     24.59% |      463274     12.50%     37.10% |      465108     12.55%     49.65% |      469534     12.67%     62.32% |      465985     12.58%     74.90% |      460050     12.42%     87.31% |      470036     12.69%    100.00% (Unspecified)
system.caches.L1Cache_Controller.IS.Data_all_Acks::total      3705241                       (Unspecified)
system.caches.L1Cache_Controller.IM.L1_Replacement |           0      0.00%      0.00% |           1      8.33%      8.33% |           4     33.33%     41.67% |           1      8.33%     50.00% |           1      8.33%     58.33% |           1      8.33%     66.67% |           2     16.67%     83.33% |           2     16.67%    100.00% (Unspecified)
system.caches.L1Cache_Controller.IM.L1_Replacement::total           12                       (Unspecified)
system.caches.L1Cache_Controller.IM.Data |          94     71.76%     71.76% |           3      2.29%     74.05% |           4      3.05%     77.10% |           9      6.87%     83.97% |           5      3.82%     87.79% |           1      0.76%     88.55% |          12      9.16%     97.71% |           3      2.29%    100.00% (Unspecified)
system.caches.L1Cache_Controller.IM.Data::total          131                       (Unspecified)
system.caches.L1Cache_Controller.IM.Data_all_Acks |       43596     12.86%     12.86% |       41274     12.17%     25.03% |       42602     12.57%     37.60% |       42192     12.44%     50.04% |       42609     12.57%     62.61% |       42752     12.61%     75.22% |       41748     12.31%     87.53% |       42276     12.47%    100.00% (Unspecified)
system.caches.L1Cache_Controller.IM.Data_all_Acks::total       339049                       (Unspecified)
system.caches.L1Cache_Controller.SM.Inv  |           0      0.00%      0.00% |           2     20.00%     20.00% |           1     10.00%     30.00% |           1     10.00%     40.00% |           2     20.00%     60.00% |           1     10.00%     70.00% |           2     20.00%     90.00% |           1     10.00%    100.00% (Unspecified)
system.caches.L1Cache_Controller.SM.Inv::total           10                       (Unspecified)
system.caches.L1Cache_Controller.SM.Ack  |       12878     13.23%     13.23% |       11678     11.99%     25.22% |       11849     12.17%     37.39% |       11771     12.09%     49.48% |       12291     12.62%     62.10% |       12159     12.49%     74.59% |       12251     12.58%     87.17% |       12491     12.83%    100.00% (Unspecified)
system.caches.L1Cache_Controller.SM.Ack::total        97368                       (Unspecified)
system.caches.L1Cache_Controller.SM.Ack_all |        5996     13.17%     13.17% |        5698     12.52%     25.69% |        5639     12.39%     38.07% |        5484     12.05%     50.12% |        5602     12.30%     62.42% |        5637     12.38%     74.80% |        5685     12.49%     87.29% |        5787     12.71%    100.00% (Unspecified)
system.caches.L1Cache_Controller.SM.Ack_all::total        45528                       (Unspecified)
system.caches.L1Cache_Controller.IS_I.Data_Exclusive |           0      0.00%      0.00% |           0      0.00%      0.00% |           1     25.00%     25.00% |           0      0.00%     25.00% |           1     25.00%     50.00% |           1     25.00%     75.00% |           1     25.00%    100.00% |           0      0.00%    100.00% (Unspecified)
system.caches.L1Cache_Controller.IS_I.Data_Exclusive::total            4                       (Unspecified)
system.caches.L1Cache_Controller.IS_I.Data_all_Acks |           0      0.00%      0.00% |          27     18.75%     18.75% |          35     24.31%     43.06% |          30     20.83%     63.89% |           3      2.08%     65.97% |           1      0.69%     66.67% |          47     32.64%     99.31% |           1      0.69%    100.00% (Unspecified)
system.caches.L1Cache_Controller.IS_I.Data_all_Acks::total          144                       (Unspecified)
system.caches.L1Cache_Controller.M_I.Load |           1     16.67%     16.67% |           0      0.00%     16.67% |           2     33.33%     50.00% |           1     16.67%     66.67% |           1     16.67%     83.33% |           0      0.00%     83.33% |           1     16.67%    100.00% |           0      0.00%    100.00% (Unspecified)
system.caches.L1Cache_Controller.M_I.Load::total            6                       (Unspecified)
system.caches.L1Cache_Controller.M_I.Store |           1     14.29%     14.29% |           2     28.57%     42.86% |           2     28.57%     71.43% |           0      0.00%     71.43% |           0      0.00%     71.43% |           0      0.00%     71.43% |           1     14.29%     85.71% |           1     14.29%    100.00% (Unspecified)
system.caches.L1Cache_Controller.M_I.Store::total            7                       (Unspecified)
system.caches.L1Cache_Controller.M_I.Inv |           4     21.05%     21.05% |           1      5.26%     26.32% |           2     10.53%     36.84% |           2     10.53%     47.37% |           1      5.26%     52.63% |           4     21.05%     73.68% |           4     21.05%     94.74% |           1      5.26%    100.00% (Unspecified)
system.caches.L1Cache_Controller.M_I.Inv::total           19                       (Unspecified)
system.caches.L1Cache_Controller.M_I.Fwd_GETS |           2     12.50%     12.50% |           1      6.25%     18.75% |           4     25.00%     43.75% |           2     12.50%     56.25% |           3     18.75%     75.00% |           2     12.50%     87.50% |           1      6.25%     93.75% |           1      6.25%    100.00% (Unspecified)
system.caches.L1Cache_Controller.M_I.Fwd_GETS::total           16                       (Unspecified)
system.caches.L1Cache_Controller.M_I.WB_Ack |     1051990     12.40%     12.40% |     1050460     12.38%     24.78% |     1049909     12.37%     37.15% |     1048084     12.35%     49.50% |     1070697     12.62%     62.12% |     1077225     12.69%     74.81% |     1043874     12.30%     87.11% |     1093778     12.89%    100.00% (Unspecified)
system.caches.L1Cache_Controller.M_I.WB_Ack::total      8486017                       (Unspecified)
system.caches.L1Cache_Controller.SINK_WB_ACK.WB_Ack |           6     17.14%     17.14% |           2      5.71%     22.86% |           6     17.14%     40.00% |           4     11.43%     51.43% |           4     11.43%     62.86% |           6     17.14%     80.00% |           5     14.29%     94.29% |           2      5.71%    100.00% (Unspecified)
system.caches.L1Cache_Controller.SINK_WB_ACK.WB_Ack::total           35                       (Unspecified)
system.caches.Directory_Controller.Fetch |       37618      0.46%      0.46% |     8057694     99.54%    100.00% (Unspecified)
system.caches.Directory_Controller.Fetch::total      8095312                       (Unspecified)
system.caches.Directory_Controller.Data  |        1485      0.18%      0.18% |      815338     99.82%    100.00% (Unspecified)
system.caches.Directory_Controller.Data::total       816823                       (Unspecified)
system.caches.Directory_Controller.Memory_Data |       37618      0.46%      0.46% |     8057683     99.54%    100.00% (Unspecified)
system.caches.Directory_Controller.Memory_Data::total      8095301                       (Unspecified)
system.caches.Directory_Controller.Memory_Ack |        1485      0.18%      0.18% |      815338     99.82%    100.00% (Unspecified)
system.caches.Directory_Controller.Memory_Ack::total       816823                       (Unspecified)
system.caches.Directory_Controller.CleanReplacement |       36250      0.50%      0.50% |     7242239     99.50%    100.00% (Unspecified)
system.caches.Directory_Controller.CleanReplacement::total      7278489                       (Unspecified)
system.caches.Directory_Controller.I.Fetch |       37618      0.46%      0.46% |     8057694     99.54%    100.00% (Unspecified)
system.caches.Directory_Controller.I.Fetch::total      8095312                       (Unspecified)
system.caches.Directory_Controller.M.Data |        1485      0.18%      0.18% |      815338     99.82%    100.00% (Unspecified)
system.caches.Directory_Controller.M.Data::total       816823                       (Unspecified)
system.caches.Directory_Controller.M.CleanReplacement |       36250      0.50%      0.50% |     7242239     99.50%    100.00% (Unspecified)
system.caches.Directory_Controller.M.CleanReplacement::total      7278489                       (Unspecified)
system.caches.Directory_Controller.IM.Memory_Data |       37618      0.46%      0.46% |     8057683     99.54%    100.00% (Unspecified)
system.caches.Directory_Controller.IM.Memory_Data::total      8095301                       (Unspecified)
system.caches.Directory_Controller.MI.Memory_Ack |        1485      0.18%      0.18% |      815338     99.82%    100.00% (Unspecified)
system.caches.Directory_Controller.MI.Memory_Ack::total       816823                       (Unspecified)
system.caches.L2Cache_Controller.L1_GET_INSTR |       22394     12.39%     12.39% |       24238     13.41%     25.80% |       22939     12.69%     38.49% |       18704     10.35%     48.83% |       20872     11.55%     60.38% |       22744     12.58%     72.96% |       26827     14.84%     87.80% |       22045     12.20%    100.00% (Unspecified)
system.caches.L2Cache_Controller.L1_GET_INSTR::total       180763                       (Unspecified)
system.caches.L2Cache_Controller.L1_GETS |     1779736     12.67%     12.67% |     1779122     12.67%     25.34% |     1752537     12.48%     37.82% |     1734607     12.35%     50.17% |     1758194     12.52%     62.69% |     1735324     12.36%     75.04% |     1763852     12.56%     87.60% |     1741082     12.40%    100.00% (Unspecified)
system.caches.L2Cache_Controller.L1_GETS::total     14044454                       (Unspecified)
system.caches.L2Cache_Controller.L1_GETX |       42955     12.66%     12.66% |       41943     12.36%     25.02% |       40463     11.93%     36.95% |       41449     12.22%     49.17% |       41725     12.30%     61.47% |       45222     13.33%     74.80% |       42676     12.58%     87.37% |       42833     12.63%    100.00% (Unspecified)
system.caches.L2Cache_Controller.L1_GETX::total       339266                       (Unspecified)
system.caches.L2Cache_Controller.L1_UPGRADE |        5566     12.23%     12.23% |        5708     12.54%     24.77% |        5597     12.30%     37.07% |        5562     12.22%     49.30% |        5651     12.42%     61.71% |        5796     12.74%     74.45% |        5944     13.06%     87.51% |        5683     12.49%    100.00% (Unspecified)
system.caches.L2Cache_Controller.L1_UPGRADE::total        45507                       (Unspecified)
system.caches.L2Cache_Controller.L1_PUTX |     1066593     12.57%     12.57% |     1064409     12.54%     25.11% |     1058484     12.47%     37.59% |     1057254     12.46%     50.04% |     1056602     12.45%     62.49% |     1059129     12.48%     74.98% |     1069590     12.60%     87.58% |     1053989     12.42%    100.00% (Unspecified)
system.caches.L2Cache_Controller.L1_PUTX::total      8486050                       (Unspecified)
system.caches.L2Cache_Controller.L1_PUTX_old |          12     31.58%     31.58% |           2      5.26%     36.84% |           6     15.79%     52.63% |           2      5.26%     57.89% |           4     10.53%     68.42% |           8     21.05%     89.47% |           2      5.26%     94.74% |           2      5.26%    100.00% (Unspecified)
system.caches.L2Cache_Controller.L1_PUTX_old::total           38                       (Unspecified)
system.caches.L2Cache_Controller.L2_Replacement |       96341     12.56%     12.56% |       95356     12.43%     25.00% |       94537     12.33%     37.32% |       95580     12.46%     49.79% |       95080     12.40%     62.18% |       97551     12.72%     74.90% |       95978     12.51%     87.42% |       96493     12.58%    100.00% (Unspecified)
system.caches.L2Cache_Controller.L2_Replacement::total       766916                       (Unspecified)
system.caches.L2Cache_Controller.L2_Replacement_clean |      917203     12.52%     12.52% |      919188     12.54%     25.06% |      914519     12.48%     37.54% |      919925     12.55%     50.09% |      912601     12.45%     62.54% |      914212     12.47%     75.02% |      921645     12.58%     87.59% |      909103     12.41%    100.00% (Unspecified)
system.caches.L2Cache_Controller.L2_Replacement_clean::total      7328396                       (Unspecified)
system.caches.L2Cache_Controller.Mem_Data |     1013539     12.52%     12.52% |     1014544     12.53%     25.05% |     1009056     12.46%     37.52% |     1015504     12.54%     50.06% |     1007681     12.45%     62.51% |     1011762     12.50%     75.01% |     1017622     12.57%     87.58% |     1005593     12.42%    100.00% (Unspecified)
system.caches.L2Cache_Controller.Mem_Data::total      8095301                       (Unspecified)
system.caches.L2Cache_Controller.Mem_Ack |     1013544     12.52%     12.52% |     1014544     12.53%     25.05% |     1009056     12.46%     37.52% |     1015505     12.54%     50.06% |     1007681     12.45%     62.51% |     1011763     12.50%     75.01% |     1017623     12.57%     87.58% |     1005596     12.42%    100.00% (Unspecified)
system.caches.L2Cache_Controller.Mem_Ack::total      8095312                       (Unspecified)
system.caches.L2Cache_Controller.WB_Data |       13093     12.07%     12.07% |       13165     12.14%     24.21% |       13016     12.00%     36.22% |       13517     12.46%     48.68% |       13129     12.11%     60.79% |       14429     13.31%     74.09% |       14462     13.34%     87.43% |       13633     12.57%    100.00% (Unspecified)
system.caches.L2Cache_Controller.WB_Data::total       108444                       (Unspecified)
system.caches.L2Cache_Controller.WB_Data_clean |      126194     12.40%     12.40% |      127753     12.56%     24.96% |      127119     12.50%     37.46% |      130040     12.78%     50.24% |      127224     12.51%     62.75% |      126054     12.39%     75.14% |      127694     12.55%     87.69% |      125208     12.31%    100.00% (Unspecified)
system.caches.L2Cache_Controller.WB_Data_clean::total      1017286                       (Unspecified)
system.caches.L2Cache_Controller.Ack     |      292661     12.76%     12.76% |      290284     12.65%     25.41% |      286810     12.50%     37.91% |      288511     12.58%     50.49% |      286900     12.51%     62.99% |      279654     12.19%     75.18% |      287286     12.52%     87.70% |      282097     12.30%    100.00% (Unspecified)
system.caches.L2Cache_Controller.Ack::total      2294203                       (Unspecified)
system.caches.L2Cache_Controller.Ack_all |      159051     12.60%     12.60% |      158178     12.53%     25.12% |      157460     12.47%     37.59% |      161227     12.77%     50.36% |      157255     12.45%     62.81% |      155756     12.34%     75.15% |      158097     12.52%     87.67% |      155687     12.33%    100.00% (Unspecified)
system.caches.L2Cache_Controller.Ack_all::total      1262711                       (Unspecified)
system.caches.L2Cache_Controller.Unblock |      130633     12.40%     12.40% |      132312     12.56%     24.97% |      131566     12.49%     37.46% |      134481     12.77%     50.23% |      131554     12.49%     62.72% |      130516     12.39%     75.11% |      132416     12.57%     87.69% |      129686     12.31%    100.00% (Unspecified)
system.caches.L2Cache_Controller.Unblock::total      1053164                       (Unspecified)
system.caches.L2Cache_Controller.Exclusive_Unblock |     1237385     12.56%     12.56% |     1234383     12.53%     25.10% |     1227799     12.47%     37.56% |     1231093     12.50%     50.06% |     1226069     12.45%     62.51% |     1228747     12.48%     74.99% |     1240953     12.60%     87.59% |     1222335     12.41%    100.00% (Unspecified)
system.caches.L2Cache_Controller.Exclusive_Unblock::total      9848764                       (Unspecified)
system.caches.L2Cache_Controller.NP.L1_GET_INSTR |        4955     12.26%     12.26% |        5514     13.65%     25.91% |        5140     12.72%     38.63% |        4837     11.97%     50.60% |        5069     12.54%     63.14% |        4900     12.13%     75.27% |        5233     12.95%     88.22% |        4759     11.78%    100.00% (Unspecified)
system.caches.L2Cache_Controller.NP.L1_GET_INSTR::total        40407                       (Unspecified)
system.caches.L2Cache_Controller.NP.L1_GETS |      979137     12.52%     12.52% |      980272     12.53%     25.05% |      976552     12.48%     37.54% |      982055     12.56%     50.09% |      974078     12.45%     62.54% |      975394     12.47%     75.01% |      983058     12.57%     87.58% |      971374     12.42%    100.00% (Unspecified)
system.caches.L2Cache_Controller.NP.L1_GETS::total      7821920                       (Unspecified)
system.caches.L2Cache_Controller.NP.L1_GETX |       29452     12.64%     12.64% |       28758     12.34%     24.98% |       27364     11.74%     36.73% |       28613     12.28%     49.01% |       28534     12.25%     61.26% |       31469     13.51%     74.76% |       29332     12.59%     87.35% |       29463     12.65%    100.00% (Unspecified)
system.caches.L2Cache_Controller.NP.L1_GETX::total       232985                       (Unspecified)
system.caches.L2Cache_Controller.NP.L1_PUTX_old |           6     31.58%     31.58% |           1      5.26%     36.84% |           3     15.79%     52.63% |           1      5.26%     57.89% |           2     10.53%     68.42% |           4     21.05%     89.47% |           1      5.26%     94.74% |           1      5.26%    100.00% (Unspecified)
system.caches.L2Cache_Controller.NP.L1_PUTX_old::total           19                       (Unspecified)
system.caches.L2Cache_Controller.SS.L1_GET_INSTR |       14627     12.38%     12.38% |       14495     12.26%     24.64% |       15269     12.92%     37.56% |       11988     10.14%     47.70% |       12780     10.81%     58.52% |       14816     12.54%     71.05% |       19096     16.16%     87.21% |       15115     12.79%    100.00% (Unspecified)
system.caches.L2Cache_Controller.SS.L1_GET_INSTR::total       118186                       (Unspecified)
system.caches.L2Cache_Controller.SS.L1_GETS |      458151     13.04%     13.04% |      458714     13.05%     26.09% |      437486     12.45%     38.54% |      414941     11.81%     50.34% |      446773     12.71%     63.05% |      426339     12.13%     75.18% |      436001     12.41%     87.59% |      436160     12.41%    100.00% (Unspecified)
system.caches.L2Cache_Controller.SS.L1_GETS::total      3514565                       (Unspecified)
system.caches.L2Cache_Controller.SS.L1_GETX |          44     33.59%     33.59% |           5      3.82%     37.40% |          33     25.19%     62.60% |           1      0.76%     63.36% |           0      0.00%     63.36% |           0      0.00%     63.36% |          46     35.11%     98.47% |           2      1.53%    100.00% (Unspecified)
system.caches.L2Cache_Controller.SS.L1_GETX::total          131                       (Unspecified)
system.caches.L2Cache_Controller.SS.L1_UPGRADE |        5566     12.26%     12.26% |        5707     12.57%     24.83% |        5597     12.33%     37.16% |        5562     12.25%     49.41% |        5649     12.44%     61.86% |        5794     12.76%     74.62% |        5839     12.86%     87.48% |        5683     12.52%    100.00% (Unspecified)
system.caches.L2Cache_Controller.SS.L1_UPGRADE::total        45397                       (Unspecified)
system.caches.L2Cache_Controller.SS.L1_PUTX |           2     12.50%     12.50% |           3     18.75%     31.25% |           0      0.00%     31.25% |           2     12.50%     43.75% |           3     18.75%     62.50% |           2     12.50%     75.00% |           0      0.00%     75.00% |           4     25.00%    100.00% (Unspecified)
system.caches.L2Cache_Controller.SS.L1_PUTX::total           16                       (Unspecified)
system.caches.L2Cache_Controller.SS.L2_Replacement |        5261     12.48%     12.48% |        5206     12.35%     24.83% |        5280     12.53%     37.36% |        5355     12.70%     50.07% |        5221     12.39%     62.45% |        5310     12.60%     75.05% |        5320     12.62%     87.67% |        5196     12.33%    100.00% (Unspecified)
system.caches.L2Cache_Controller.SS.L2_Replacement::total        42149                       (Unspecified)
system.caches.L2Cache_Controller.SS.L2_Replacement_clean |      124013     12.42%     12.42% |      125904     12.61%     25.03% |      124953     12.52%     37.55% |      127355     12.76%     50.31% |      124771     12.50%     62.81% |      123122     12.33%     75.14% |      125417     12.56%     87.70% |      122766     12.30%    100.00% (Unspecified)
system.caches.L2Cache_Controller.SS.L2_Replacement_clean::total       998301                       (Unspecified)
system.caches.L2Cache_Controller.M.L1_GET_INSTR |           0      0.00%      0.00% |           3     23.08%     23.08% |           1      7.69%     30.77% |           1      7.69%     38.46% |           2     15.38%     53.85% |           2     15.38%     69.23% |           1      7.69%     76.92% |           3     23.08%    100.00% (Unspecified)
system.caches.L2Cache_Controller.M.L1_GET_INSTR::total           13                       (Unspecified)
system.caches.L2Cache_Controller.M.L1_GETS |      210414     12.79%     12.79% |      206823     12.57%     25.35% |      205750     12.50%     37.86% |      202388     12.30%     50.15% |      205015     12.46%     62.61% |      202547     12.31%     74.92% |      209737     12.74%     87.66% |      203034     12.34%    100.00% (Unspecified)
system.caches.L2Cache_Controller.M.L1_GETS::total      1645708                       (Unspecified)
system.caches.L2Cache_Controller.M.L1_GETX |       13422     12.73%     12.73% |       12958     12.29%     25.01% |       12953     12.28%     37.29% |       12799     12.14%     49.43% |       13137     12.46%     61.89% |       13708     13.00%     74.88% |       13191     12.51%     87.39% |       13298     12.61%    100.00% (Unspecified)
system.caches.L2Cache_Controller.M.L1_GETX::total       105466                       (Unspecified)
system.caches.L2Cache_Controller.M.L2_Replacement |       88140     12.58%     12.58% |       87184     12.44%     25.02% |       86361     12.33%     37.35% |       87116     12.43%     49.78% |       86906     12.40%     62.19% |       88953     12.70%     74.88% |       87688     12.52%     87.40% |       88292     12.60%    100.00% (Unspecified)
system.caches.L2Cache_Controller.M.L2_Replacement::total       700640                       (Unspecified)
system.caches.L2Cache_Controller.M.L2_Replacement_clean |      757699     12.50%     12.50% |      760576     12.55%     25.06% |      756666     12.49%     37.54% |      758086     12.51%     50.05% |      754721     12.46%     62.51% |      757087     12.49%     75.00% |      762098     12.58%     87.58% |      752462     12.42%    100.00% (Unspecified)
system.caches.L2Cache_Controller.M.L2_Replacement_clean::total      6059395                       (Unspecified)
system.caches.L2Cache_Controller.MT.L1_GETS |      130633     12.40%     12.40% |      132312     12.56%     24.97% |      131566     12.49%     37.46% |      134481     12.77%     50.23% |      131554     12.49%     62.72% |      130516     12.39%     75.11% |      132416     12.57%     87.69% |      129686     12.31%    100.00% (Unspecified)
system.caches.L2Cache_Controller.MT.L1_GETS::total      1053164                       (Unspecified)
system.caches.L2Cache_Controller.MT.L1_GETX |          32      5.34%      5.34% |         221     36.89%     42.24% |         107     17.86%     60.10% |          35      5.84%     65.94% |          50      8.35%     74.29% |          40      6.68%     80.97% |          67     11.19%     92.15% |          47      7.85%    100.00% (Unspecified)
system.caches.L2Cache_Controller.MT.L1_GETX::total          599                       (Unspecified)
system.caches.L2Cache_Controller.MT.L1_PUTX |     1066589     12.57%     12.57% |     1064403     12.54%     25.11% |     1058484     12.47%     37.59% |     1057250     12.46%     50.04% |     1056596     12.45%     62.49% |     1059125     12.48%     74.98% |     1069590     12.60%     87.58% |     1053981     12.42%    100.00% (Unspecified)
system.caches.L2Cache_Controller.MT.L1_PUTX::total      8486018                       (Unspecified)
system.caches.L2Cache_Controller.MT.L2_Replacement |        2940     12.19%     12.19% |        2966     12.29%     24.48% |        2896     12.00%     36.48% |        3109     12.89%     49.37% |        2953     12.24%     61.61% |        3288     13.63%     75.24% |        2970     12.31%     87.55% |        3005     12.45%    100.00% (Unspecified)
system.caches.L2Cache_Controller.MT.L2_Replacement::total        24127                       (Unspecified)
system.caches.L2Cache_Controller.MT.L2_Replacement_clean |       35491     13.11%     13.11% |       32708     12.08%     25.19% |       32900     12.15%     37.35% |       34484     12.74%     50.09% |       33109     12.23%     62.32% |       34003     12.56%     74.88% |       34130     12.61%     87.49% |       33875     12.51%    100.00% (Unspecified)
system.caches.L2Cache_Controller.MT.L2_Replacement_clean::total       270700                       (Unspecified)
system.caches.L2Cache_Controller.M_I.L1_GET_INSTR |           7      4.09%      4.09% |         158     92.40%     96.49% |           6      3.51%    100.00% |           0      0.00%    100.00% |           0      0.00%    100.00% |           0      0.00%    100.00% |           0      0.00%    100.00% |           0      0.00%    100.00% (Unspecified)
system.caches.L2Cache_Controller.M_I.L1_GET_INSTR::total          171                       (Unspecified)
system.caches.L2Cache_Controller.M_I.L1_GETS |          40      7.80%      7.80% |           8      1.56%      9.36% |          10      1.95%     11.31% |          11      2.14%     13.45% |          39      7.60%     21.05% |           6      1.17%     22.22% |         386     75.24%     97.47% |          13      2.53%    100.00% (Unspecified)
system.caches.L2Cache_Controller.M_I.L1_GETS::total          513                       (Unspecified)
system.caches.L2Cache_Controller.M_I.L1_GETX |           5     25.00%     25.00% |           0      0.00%     25.00% |           3     15.00%     40.00% |           1      5.00%     45.00% |           4     20.00%     65.00% |           5     25.00%     90.00% |           2     10.00%    100.00% |           0      0.00%    100.00% (Unspecified)
system.caches.L2Cache_Controller.M_I.L1_GETX::total           20                       (Unspecified)
system.caches.L2Cache_Controller.M_I.Mem_Ack |     1013544     12.52%     12.52% |     1014544     12.53%     25.05% |     1009056     12.46%     37.52% |     1015505     12.54%     50.06% |     1007681     12.45%     62.51% |     1011763     12.50%     75.01% |     1017623     12.57%     87.58% |     1005596     12.42%    100.00% (Unspecified)
system.caches.L2Cache_Controller.M_I.Mem_Ack::total      8095312                       (Unspecified)
system.caches.L2Cache_Controller.MT_I.WB_Data |        2742     12.11%     12.11% |        2804     12.38%     24.50% |        2717     12.00%     36.50% |        2939     12.98%     49.48% |        2763     12.20%     61.68% |        3078     13.59%     75.27% |        2798     12.36%     87.63% |        2800     12.37%    100.00% (Unspecified)
system.caches.L2Cache_Controller.MT_I.WB_Data::total        22641                       (Unspecified)
system.caches.L2Cache_Controller.MT_I.Ack_all |         198     13.32%     13.32% |         162     10.90%     24.23% |         179     12.05%     36.27% |         170     11.44%     47.71% |         190     12.79%     60.50% |         210     14.13%     74.63% |         172     11.57%     86.20% |         205     13.80%    100.00% (Unspecified)
system.caches.L2Cache_Controller.MT_I.Ack_all::total         1486                       (Unspecified)
system.caches.L2Cache_Controller.MCT_I.L1_PUTX_old |           6     31.58%     31.58% |           1      5.26%     36.84% |           3     15.79%     52.63% |           1      5.26%     57.89% |           2     10.53%     68.42% |           4     21.05%     89.47% |           1      5.26%     94.74% |           1      5.26%    100.00% (Unspecified)
system.caches.L2Cache_Controller.MCT_I.L1_PUTX_old::total           19                       (Unspecified)
system.caches.L2Cache_Controller.MCT_I.WB_Data |        5906     11.83%     11.83% |        5801     11.62%     23.46% |        5849     11.72%     35.18% |        6136     12.29%     47.47% |        6034     12.09%     59.56% |        6886     13.80%     73.36% |        6941     13.91%     87.27% |        6354     12.73%    100.00% (Unspecified)
system.caches.L2Cache_Controller.MCT_I.WB_Data::total        49907                       (Unspecified)
system.caches.L2Cache_Controller.MCT_I.WB_Data_clean |           6     33.33%     33.33% |           1      5.56%     38.89% |           3     16.67%     55.56% |           1      5.56%     61.11% |           2     11.11%     72.22% |           3     16.67%     88.89% |           1      5.56%     94.44% |           1      5.56%    100.00% (Unspecified)
system.caches.L2Cache_Controller.MCT_I.WB_Data_clean::total           18                       (Unspecified)
system.caches.L2Cache_Controller.MCT_I.Ack_all |       29579     13.40%     13.40% |       26906     12.19%     25.58% |       27048     12.25%     37.84% |       28347     12.84%     50.68% |       27073     12.26%     62.94% |       27114     12.28%     75.22% |       27188     12.31%     87.53% |       27520     12.47%    100.00% (Unspecified)
system.caches.L2Cache_Controller.MCT_I.Ack_all::total       220775                       (Unspecified)
system.caches.L2Cache_Controller.I_I.L1_GET_INSTR |           0      0.00%      0.00% |           3     75.00%     75.00% |           0      0.00%     75.00% |           0      0.00%     75.00% |           0      0.00%     75.00% |           0      0.00%     75.00% |           1     25.00%    100.00% |           0      0.00%    100.00% (Unspecified)
system.caches.L2Cache_Controller.I_I.L1_GET_INSTR::total            4                       (Unspecified)
system.caches.L2Cache_Controller.I_I.L1_GETS |           0      0.00%      0.00% |           0      0.00%      0.00% |           1     12.50%     12.50% |           1     12.50%     25.00% |           0      0.00%     25.00% |           1     12.50%     37.50% |           2     25.00%     62.50% |           3     37.50%    100.00% (Unspecified)
system.caches.L2Cache_Controller.I_I.L1_GETS::total            8                       (Unspecified)
system.caches.L2Cache_Controller.I_I.Ack |      280940     12.75%     12.75% |      278900     12.65%     25.40% |      275766     12.51%     37.91% |      277253     12.58%     50.49% |      275817     12.51%     63.00% |      268414     12.18%     75.18% |      275770     12.51%     87.69% |      271224     12.31%    100.00% (Unspecified)
system.caches.L2Cache_Controller.I_I.Ack::total      2204084                       (Unspecified)
system.caches.L2Cache_Controller.I_I.Ack_all |      124013     12.42%     12.42% |      125904     12.61%     25.03% |      124953     12.52%     37.55% |      127355     12.76%     50.31% |      124771     12.50%     62.81% |      123122     12.33%     75.14% |      125417     12.56%     87.70% |      122766     12.30%    100.00% (Unspecified)
system.caches.L2Cache_Controller.I_I.Ack_all::total       998301                       (Unspecified)
system.caches.L2Cache_Controller.S_I.L1_GETS |           0      0.00%      0.00% |           0      0.00%      0.00% |           0      0.00%      0.00% |           0      0.00%      0.00% |           0      0.00%      0.00% |           0      0.00%      0.00% |           0      0.00%      0.00% |           1    100.00%    100.00% (Unspecified)
system.caches.L2Cache_Controller.S_I.L1_GETS::total            1                       (Unspecified)
system.caches.L2Cache_Controller.S_I.Ack |       11721     13.01%     13.01% |       11384     12.63%     25.64% |       11044     12.25%     37.89% |       11258     12.49%     50.39% |       11083     12.30%     62.68% |       11240     12.47%     75.16% |       11516     12.78%     87.93% |       10873     12.07%    100.00% (Unspecified)
system.caches.L2Cache_Controller.S_I.Ack::total        90119                       (Unspecified)
system.caches.L2Cache_Controller.S_I.Ack_all |        5261     12.48%     12.48% |        5206     12.35%     24.83% |        5280     12.53%     37.36% |        5355     12.70%     50.07% |        5221     12.39%     62.45% |        5310     12.60%     75.05% |        5320     12.62%     87.67% |        5196     12.33%    100.00% (Unspecified)
system.caches.L2Cache_Controller.S_I.Ack_all::total        42149                       (Unspecified)
system.caches.L2Cache_Controller.ISS.L1_GETS |         677     19.74%     19.74% |         361     10.52%     30.26% |         556     16.21%     46.47% |         359     10.47%     56.94% |         394     11.49%     68.43% |         204      5.95%     74.37% |         316      9.21%     83.59% |         563     16.41%    100.00% (Unspecified)
system.caches.L2Cache_Controller.ISS.L1_GETS::total         3430                       (Unspecified)
system.caches.L2Cache_Controller.ISS.L1_GETX |           0      0.00%      0.00% |           0      0.00%      0.00% |           0      0.00%      0.00% |           0      0.00%      0.00% |           0      0.00%      0.00% |           0      0.00%      0.00% |           1    100.00%    100.00% |           0      0.00%    100.00% (Unspecified)
system.caches.L2Cache_Controller.ISS.L1_GETX::total            1                       (Unspecified)
system.caches.L2Cache_Controller.ISS.Mem_Data |      978455     12.51%     12.51% |      979911     12.53%     25.05% |      975996     12.48%     37.53% |      981695     12.56%     50.09% |      973684     12.45%     62.54% |      975189     12.47%     75.01% |      982741     12.57%     87.58% |      970808     12.42%    100.00% (Unspecified)
system.caches.L2Cache_Controller.ISS.Mem_Data::total      7818479                       (Unspecified)
system.caches.L2Cache_Controller.IS.L1_GET_INSTR |        2805     12.76%     12.76% |        4065     18.49%     31.25% |        2523     11.48%     42.73% |        1878      8.54%     51.27% |        3021     13.74%     65.02% |        3026     13.77%     78.78% |        2496     11.35%     90.14% |        2168      9.86%    100.00% (Unspecified)
system.caches.L2Cache_Controller.IS.L1_GET_INSTR::total        21982                       (Unspecified)
system.caches.L2Cache_Controller.IS.L1_GETS |         577     17.11%     17.11% |         474     14.06%     31.17% |         538     15.95%     47.12% |         344     10.20%     57.33% |         293      8.69%     66.01% |         197      5.84%     71.86% |         746     22.12%     93.98% |         203      6.02%    100.00% (Unspecified)
system.caches.L2Cache_Controller.IS.L1_GETS::total         3372                       (Unspecified)
system.caches.L2Cache_Controller.IS.Mem_Data |        5632     12.85%     12.85% |        5875     13.40%     26.25% |        5696     12.99%     39.24% |        5196     11.85%     51.10% |        5463     12.46%     63.56% |        5104     11.64%     75.20% |        5549     12.66%     87.86% |        5322     12.14%    100.00% (Unspecified)
system.caches.L2Cache_Controller.IS.Mem_Data::total        43837                       (Unspecified)
system.caches.L2Cache_Controller.IM.L1_GETS |           0      0.00%      0.00% |           0      0.00%      0.00% |           0      0.00%      0.00% |           0      0.00%      0.00% |           0      0.00%      0.00% |           0      0.00%      0.00% |           1    100.00%    100.00% |           0      0.00%    100.00% (Unspecified)
system.caches.L2Cache_Controller.IM.L1_GETS::total            1                       (Unspecified)
system.caches.L2Cache_Controller.IM.L1_GETX |           0      0.00%      0.00% |           0      0.00%      0.00% |           1    100.00%    100.00% |           0      0.00%    100.00% |           0      0.00%    100.00% |           0      0.00%    100.00% |           0      0.00%    100.00% |           0      0.00%    100.00% (Unspecified)
system.caches.L2Cache_Controller.IM.L1_GETX::total            1                       (Unspecified)
system.caches.L2Cache_Controller.IM.Mem_Data |       29452     12.64%     12.64% |       28758     12.34%     24.98% |       27364     11.74%     36.73% |       28613     12.28%     49.01% |       28534     12.25%     61.26% |       31469     13.51%     74.76% |       29332     12.59%     87.35% |       29463     12.65%    100.00% (Unspecified)
system.caches.L2Cache_Controller.IM.Mem_Data::total       232985                       (Unspecified)
system.caches.L2Cache_Controller.SS_MB.L1_GETS |           1      0.16%      0.16% |           2      0.32%      0.48% |          17      2.70%      3.17% |           0      0.00%      3.17% |           9      1.43%      4.60% |           2      0.32%      4.92% |         598     94.92%     99.84% |           1      0.16%    100.00% (Unspecified)
system.caches.L2Cache_Controller.SS_MB.L1_GETS::total          630                       (Unspecified)
system.caches.L2Cache_Controller.SS_MB.L1_GETX |           0      0.00%      0.00% |           0      0.00%      0.00% |           0      0.00%      0.00% |           0      0.00%      0.00% |           0      0.00%      0.00% |           0      0.00%      0.00% |           0      0.00%      0.00% |           8    100.00%    100.00% (Unspecified)
system.caches.L2Cache_Controller.SS_MB.L1_GETX::total            8                       (Unspecified)
system.caches.L2Cache_Controller.SS_MB.L1_UPGRADE |           0      0.00%      0.00% |           1     10.00%     10.00% |           0      0.00%     10.00% |           0      0.00%     10.00% |           0      0.00%     10.00% |           2     20.00%     30.00% |           7     70.00%    100.00% |           0      0.00%    100.00% (Unspecified)
system.caches.L2Cache_Controller.SS_MB.L1_UPGRADE::total           10                       (Unspecified)
system.caches.L2Cache_Controller.SS_MB.Exclusive_Unblock |        5610     12.32%     12.32% |        5712     12.55%     24.87% |        5630     12.37%     37.23% |        5563     12.22%     49.45% |        5649     12.41%     61.86% |        5794     12.73%     74.59% |        5885     12.93%     87.51% |        5685     12.49%    100.00% (Unspecified)
system.caches.L2Cache_Controller.SS_MB.Exclusive_Unblock::total        45528                       (Unspecified)
system.caches.L2Cache_Controller.MT_MB.L1_GETS |          22     11.58%     11.58% |          21     11.05%     22.63% |          27     14.21%     36.84% |          18      9.47%     46.32% |          22     11.58%     57.89% |          43     22.63%     80.53% |          13      6.84%     87.37% |          24     12.63%    100.00% (Unspecified)
system.caches.L2Cache_Controller.MT_MB.L1_GETS::total          190                       (Unspecified)
system.caches.L2Cache_Controller.MT_MB.L1_GETX |           0      0.00%      0.00% |           1      2.08%      2.08% |           0      0.00%      2.08% |           0      0.00%      2.08% |           0      0.00%      2.08% |           0      0.00%      2.08% |          37     77.08%     79.17% |          10     20.83%    100.00% (Unspecified)
system.caches.L2Cache_Controller.MT_MB.L1_GETX::total           48                       (Unspecified)
system.caches.L2Cache_Controller.MT_MB.Exclusive_Unblock |     1231775     12.56%     12.56% |     1228671     12.53%     25.10% |     1222169     12.47%     37.57% |     1225530     12.50%     50.07% |     1220420     12.45%     62.52% |     1222953     12.47%     74.99% |     1235068     12.60%     87.59% |     1216650     12.41%    100.00% (Unspecified)
system.caches.L2Cache_Controller.MT_MB.Exclusive_Unblock::total      9803236                       (Unspecified)
system.caches.L2Cache_Controller.MT_IIB.L1_GETS |          62      7.04%      7.04% |         103     11.69%     18.73% |          33      3.75%     22.47% |           7      0.79%     23.27% |          16      1.82%     25.09% |          73      8.29%     33.37% |         571     64.81%     98.18% |          16      1.82%    100.00% (Unspecified)
system.caches.L2Cache_Controller.MT_IIB.L1_GETS::total          881                       (Unspecified)
system.caches.L2Cache_Controller.MT_IIB.L1_GETX |           0      0.00%      0.00% |           0      0.00%      0.00% |           1     16.67%     16.67% |           0      0.00%     16.67% |           0      0.00%     16.67% |           0      0.00%     16.67% |           0      0.00%     16.67% |           5     83.33%    100.00% (Unspecified)
system.caches.L2Cache_Controller.MT_IIB.L1_GETX::total            6                       (Unspecified)
system.caches.L2Cache_Controller.MT_IIB.L1_PUTX |           2     12.50%     12.50% |           3     18.75%     31.25% |           0      0.00%     31.25% |           2     12.50%     43.75% |           3     18.75%     62.50% |           2     12.50%     75.00% |           0      0.00%     75.00% |           4     25.00%    100.00% (Unspecified)
system.caches.L2Cache_Controller.MT_IIB.L1_PUTX::total           16                       (Unspecified)
system.caches.L2Cache_Controller.MT_IIB.WB_Data |        4444     12.38%     12.38% |        4560     12.70%     25.09% |        4450     12.40%     37.48% |        4441     12.37%     49.86% |        4332     12.07%     61.93% |        4464     12.44%     74.36% |        4723     13.16%     87.52% |        4479     12.48%    100.00% (Unspecified)
system.caches.L2Cache_Controller.MT_IIB.WB_Data::total        35893                       (Unspecified)
system.caches.L2Cache_Controller.MT_IIB.WB_Data_clean |      126178     12.40%     12.40% |      127743     12.56%     24.96% |      127106     12.50%     37.46% |      130029     12.78%     50.24% |      127204     12.51%     62.75% |      126042     12.39%     75.14% |      127679     12.55%     87.69% |      125201     12.31%    100.00% (Unspecified)
system.caches.L2Cache_Controller.MT_IIB.WB_Data_clean::total      1017182                       (Unspecified)
system.caches.L2Cache_Controller.MT_IIB.Unblock |          11     12.36%     12.36% |           9     10.11%     22.47% |          10     11.24%     33.71% |          11     12.36%     46.07% |          18     20.22%     66.29% |          10     11.24%     77.53% |          14     15.73%     93.26% |           6      6.74%    100.00% (Unspecified)
system.caches.L2Cache_Controller.MT_IIB.Unblock::total           89                       (Unspecified)
system.caches.L2Cache_Controller.MT_IB.WB_Data |           1     33.33%     33.33% |           0      0.00%     33.33% |           0      0.00%     33.33% |           1     33.33%     66.67% |           0      0.00%     66.67% |           1     33.33%    100.00% |           0      0.00%    100.00% |           0      0.00%    100.00% (Unspecified)
system.caches.L2Cache_Controller.MT_IB.WB_Data::total            3                       (Unspecified)
system.caches.L2Cache_Controller.MT_IB.WB_Data_clean |          10     11.63%     11.63% |           9     10.47%     22.09% |          10     11.63%     33.72% |          10     11.63%     45.35% |          18     20.93%     66.28% |           9     10.47%     76.74% |          14     16.28%     93.02% |           6      6.98%    100.00% (Unspecified)
system.caches.L2Cache_Controller.MT_IB.WB_Data_clean::total           86                       (Unspecified)
system.caches.L2Cache_Controller.MT_SB.L1_GETS |          22     30.99%     30.99% |          32     45.07%     76.06% |           1      1.41%     77.46% |           2      2.82%     80.28% |           1      1.41%     81.69% |           2      2.82%     84.51% |           7      9.86%     94.37% |           4      5.63%    100.00% (Unspecified)
system.caches.L2Cache_Controller.MT_SB.L1_GETS::total           71                       (Unspecified)
system.caches.L2Cache_Controller.MT_SB.L1_GETX |           0      0.00%      0.00% |           0      0.00%      0.00% |           1    100.00%    100.00% |           0      0.00%    100.00% |           0      0.00%    100.00% |           0      0.00%    100.00% |           0      0.00%    100.00% |           0      0.00%    100.00% (Unspecified)
system.caches.L2Cache_Controller.MT_SB.L1_GETX::total            1                       (Unspecified)
system.caches.L2Cache_Controller.MT_SB.L1_UPGRADE |           0      0.00%      0.00% |           0      0.00%      0.00% |           0      0.00%      0.00% |           0      0.00%      0.00% |           2      2.00%      2.00% |           0      0.00%      2.00% |          98     98.00%    100.00% |           0      0.00%    100.00% (Unspecified)
system.caches.L2Cache_Controller.MT_SB.L1_UPGRADE::total          100                       (Unspecified)
system.caches.L2Cache_Controller.MT_SB.Unblock |      130622     12.40%     12.40% |      132303     12.56%     24.97% |      131556     12.49%     37.46% |      134470     12.77%     50.23% |      131536     12.49%     62.72% |      130506     12.39%     75.11% |      132402     12.57%     87.69% |      129680     12.31%    100.00% (Unspecified)
system.caches.L2Cache_Controller.MT_SB.Unblock::total      1053075                       (Unspecified)
system.caches.RequestType.LD.latency_hist_seqr::bucket_size          512                       (Unspecified)
system.caches.RequestType.LD.latency_hist_seqr::max_bucket         5119                       (Unspecified)
system.caches.RequestType.LD.latency_hist_seqr::samples     96521972                       (Unspecified)
system.caches.RequestType.LD.latency_hist_seqr::mean    41.429083                       (Unspecified)
system.caches.RequestType.LD.latency_hist_seqr::gmean     1.952765                       (Unspecified)
system.caches.RequestType.LD.latency_hist_seqr::stdev   149.671539                       (Unspecified)
system.caches.RequestType.LD.latency_hist_seqr |    94369358     97.77%     97.77% |     2036496      2.11%     99.88% |       10994      0.01%     99.89% |       13673      0.01%     99.91% |       80166      0.08%     99.99% |       11134      0.01%    100.00% |         140      0.00%    100.00% |          11      0.00%    100.00% |           0      0.00%    100.00% |           0      0.00%    100.00% (Unspecified)
system.caches.RequestType.LD.latency_hist_seqr::total     96521972                       (Unspecified)
system.caches.RequestType.LD.hit_latency_hist_seqr::bucket_size            1                       (Unspecified)
system.caches.RequestType.LD.hit_latency_hist_seqr::max_bucket            9                       (Unspecified)
system.caches.RequestType.LD.hit_latency_hist_seqr::samples     82479824                       (Unspecified)
system.caches.RequestType.LD.hit_latency_hist_seqr::mean     1.000577                       (Unspecified)
system.caches.RequestType.LD.hit_latency_hist_seqr::gmean     1.000400                       (Unspecified)
system.caches.RequestType.LD.hit_latency_hist_seqr::stdev     0.024009                       (Unspecified)
system.caches.RequestType.LD.hit_latency_hist_seqr |           0      0.00%      0.00% |    82432251     99.94%     99.94% |       47573      0.06%    100.00% |           0      0.00%    100.00% |           0      0.00%    100.00% |           0      0.00%    100.00% |           0      0.00%    100.00% |           0      0.00%    100.00% |           0      0.00%    100.00% |           0      0.00%    100.00% (Unspecified)
system.caches.RequestType.LD.hit_latency_hist_seqr::total     82479824                       (Unspecified)
system.caches.RequestType.LD.miss_latency_hist_seqr::bucket_size          512                       (Unspecified)
system.caches.RequestType.LD.miss_latency_hist_seqr::max_bucket         5119                       (Unspecified)
system.caches.RequestType.LD.miss_latency_hist_seqr::samples     14042148                       (Unspecified)
system.caches.RequestType.LD.miss_latency_hist_seqr::mean   278.895322                       (Unspecified)
system.caches.RequestType.LD.miss_latency_hist_seqr::gmean    99.272785                       (Unspecified)
system.caches.RequestType.LD.miss_latency_hist_seqr::stdev   296.634089                       (Unspecified)
system.caches.RequestType.LD.miss_latency_hist_seqr |    11889534     84.67%     84.67% |     2036496     14.50%     99.17% |       10994      0.08%     99.25% |       13673      0.10%     99.35% |       80166      0.57%     99.92% |       11134      0.08%    100.00% |         140      0.00%    100.00% |          11      0.00%    100.00% |           0      0.00%    100.00% |           0      0.00%    100.00% (Unspecified)
system.caches.RequestType.LD.miss_latency_hist_seqr::total     14042148                       (Unspecified)
system.caches.RequestType.ST.latency_hist_seqr::bucket_size          512                       (Unspecified)
system.caches.RequestType.ST.latency_hist_seqr::max_bucket         5119                       (Unspecified)
system.caches.RequestType.ST.latency_hist_seqr::samples      2209810                       (Unspecified)
system.caches.RequestType.ST.latency_hist_seqr::mean    50.405196                       (Unspecified)
system.caches.RequestType.ST.latency_hist_seqr::gmean     2.105227                       (Unspecified)
system.caches.RequestType.ST.latency_hist_seqr::stdev   166.635906                       (Unspecified)
[...]
system.o3Cpu7.iew.squashCycles                  92241                       # Number of cycles IEW is squashing (Cycle)
system.o3Cpu7.iew.blockCycles                 4944851                       # Number of cycles IEW is blocking (Cycle)
system.o3Cpu7.iew.unblockCycles              83343147                       # Number of cycles IEW is unblocking (Cycle)
system.o3Cpu7.iew.dispatchedInsts            43751755                       # Number of instructions dispatched to IQ (Count)
system.o3Cpu7.iew.dispSquashedInsts               562                       # Number of squashed instructions skipped by dispatch (Count)
system.o3Cpu7.iew.dispLoadInsts              12933388                       # Number of dispatched load instructions (Count)
system.o3Cpu7.iew.dispStoreInsts               676550                       # Number of dispatched store instructions (Count)
system.o3Cpu7.iew.dispNonSpecInsts              67833                       # Number of dispatched non-speculative instructions (Count)
system.o3Cpu7.iew.iqFullEvents                 181207                       # Number of times the IQ has become full, causing a stall (Count)
system.o3Cpu7.iew.lsqFullEvents              83078367                       # Number of times the LSQ has become full, causing a stall (Count)
system.o3Cpu7.iew.memOrderViolationEvents          279                       # Number of memory order violations (Count)
system.o3Cpu7.iew.predictedTakenIncorrect        62356                       # Number of branches that were predicted taken incorrectly (Count)
system.o3Cpu7.iew.predictedNotTakenIncorrect         8902                       # Number of branches that were predicted not taken incorrectly (Count)
system.o3Cpu7.iew.branchMispredicts             71258                       # Number of branch mispredicts detected at execute (Count)
system.o3Cpu7.iew.instsToCommit              43319245                       # Cumulative count of insts sent to commit (Count)
system.o3Cpu7.iew.writebackCount             43192476                       # Cumulative count of insts written-back (Count)
system.o3Cpu7.iew.producerInst               33689803                       # Number of instructions producing a value (Count)
system.o3Cpu7.iew.consumerInst               48372161                       # Number of instructions consuming a value (Count)
system.o3Cpu7.iew.wbRate                     0.147243                       # Insts written-back per cycle ((Count/Cycle))
system.o3Cpu7.iew.wbFanout                   0.696471                       # Average fanout of values written-back ((Count/Count))
system.o3Cpu7.interrupts.clk_domain.clock         3200                       # Clock period in ticks (Tick)
system.o3Cpu7.lsq0.forwLoads                    20228                       # Number of loads that had data forwarded from stores (Count)
system.o3Cpu7.lsq0.squashedLoads              1032738                       # Number of loads squashed (Count)
system.o3Cpu7.lsq0.ignoredResponses                 4                       # Number of memory responses ignored because the instruction is squashed (Count)
system.o3Cpu7.lsq0.memOrderViolation              279                       # Number of memory ordering violations (Count)
system.o3Cpu7.lsq0.squashedStores              336180                       # Number of stores squashed (Count)
system.o3Cpu7.lsq0.rescheduledLoads                93                       # Number of loads that were rescheduled (Count)
system.o3Cpu7.lsq0.blockedByCache                  28                       # Number of times an access to memory failed due to the cache being blocked (Count)
system.o3Cpu7.lsq0.loadToUse::samples        11890245                       # Distribution of cycle latency between the first time a load is issued and its completion (Unspecified)
system.o3Cpu7.lsq0.loadToUse::mean          70.601552                       # Distribution of cycle latency between the first time a load is issued and its completion (Unspecified)
system.o3Cpu7.lsq0.loadToUse::stdev        186.999271                       # Distribution of cycle latency between the first time a load is issued and its completion (Unspecified)
system.o3Cpu7.lsq0.loadToUse::0-9             9348711     78.63%     78.63% # Distribution of cycle latency between the first time a load is issued and its completion (Unspecified)
system.o3Cpu7.lsq0.loadToUse::10-19            568695      4.78%     83.41% # Distribution of cycle latency between the first time a load is issued and its completion (Unspecified)
system.o3Cpu7.lsq0.loadToUse::20-29            197844      1.66%     85.07% # Distribution of cycle latency between the first time a load is issued and its completion (Unspecified)
system.o3Cpu7.lsq0.loadToUse::30-39             32256      0.27%     85.34% # Distribution of cycle latency between the first time a load is issued and its completion (Unspecified)
system.o3Cpu7.lsq0.loadToUse::40-49             18469      0.16%     85.50% # Distribution of cycle latency between the first time a load is issued and its completion (Unspecified)
system.o3Cpu7.lsq0.loadToUse::50-59              8584      0.07%     85.57% # Distribution of cycle latency between the first time a load is issued and its completion (Unspecified)
system.o3Cpu7.lsq0.loadToUse::60-69              8060      0.07%     85.64% # Distribution of cycle latency between the first time a load is issued and its completion (Unspecified)
system.o3Cpu7.lsq0.loadToUse::70-79              6981      0.06%     85.70% # Distribution of cycle latency between the first time a load is issued and its completion (Unspecified)
system.o3Cpu7.lsq0.loadToUse::80-89              6319      0.05%     85.75% # Distribution of cycle latency between the first time a load is issued and its completion (Unspecified)
system.o3Cpu7.lsq0.loadToUse::90-99              6308      0.05%     85.80% # Distribution of cycle latency between the first time a load is issued and its completion (Unspecified)
system.o3Cpu7.lsq0.loadToUse::100-109            4238      0.04%     85.84% # Distribution of cycle latency between the first time a load is issued and its completion (Unspecified)
system.o3Cpu7.lsq0.loadToUse::110-119            4660      0.04%     85.88% # Distribution of cycle latency between the first time a load is issued and its completion (Unspecified)
system.o3Cpu7.lsq0.loadToUse::120-129            4099      0.03%     85.91% # Distribution of cycle latency between the first time a load is issued and its completion (Unspecified)
system.o3Cpu7.lsq0.loadToUse::130-139            4332      0.04%     85.95% # Distribution of cycle latency between the first time a load is issued and its completion (Unspecified)
system.o3Cpu7.lsq0.loadToUse::140-149            4372      0.04%     85.99% # Distribution of cycle latency between the first time a load is issued and its completion (Unspecified)
system.o3Cpu7.lsq0.loadToUse::150-159            3565      0.03%     86.02% # Distribution of cycle latency between the first time a load is issued and its completion (Unspecified)
system.o3Cpu7.lsq0.loadToUse::160-169            3923      0.03%     86.05% # Distribution of cycle latency between the first time a load is issued and its completion (Unspecified)
system.o3Cpu7.lsq0.loadToUse::170-179            4197      0.04%     86.08% # Distribution of cycle latency between the first time a load is issued and its completion (Unspecified)
system.o3Cpu7.lsq0.loadToUse::180-189            4502      0.04%     86.12% # Distribution of cycle latency between the first time a load is issued and its completion (Unspecified)
system.o3Cpu7.lsq0.loadToUse::190-199            4898      0.04%     86.16% # Distribution of cycle latency between the first time a load is issued and its completion (Unspecified)
system.o3Cpu7.lsq0.loadToUse::200-209            5165      0.04%     86.21% # Distribution of cycle latency between the first time a load is issued and its completion (Unspecified)
system.o3Cpu7.lsq0.loadToUse::210-219            7830      0.07%     86.27% # Distribution of cycle latency between the first time a load is issued and its completion (Unspecified)
system.o3Cpu7.lsq0.loadToUse::220-229            5595      0.05%     86.32% # Distribution of cycle latency between the first time a load is issued and its completion (Unspecified)
system.o3Cpu7.lsq0.loadToUse::230-239            5487      0.05%     86.37% # Distribution of cycle latency between the first time a load is issued and its completion (Unspecified)
system.o3Cpu7.lsq0.loadToUse::240-249            4437      0.04%     86.40% # Distribution of cycle latency between the first time a load is issued and its completion (Unspecified)
system.o3Cpu7.lsq0.loadToUse::250-259            5163      0.04%     86.45% # Distribution of cycle latency between the first time a load is issued and its completion (Unspecified)
system.o3Cpu7.lsq0.loadToUse::260-269            5659      0.05%     86.49% # Distribution of cycle latency between the first time a load is issued and its completion (Unspecified)
system.o3Cpu7.lsq0.loadToUse::270-279            7137      0.06%     86.55% # Distribution of cycle latency between the first time a load is issued and its completion (Unspecified)
system.o3Cpu7.lsq0.loadToUse::280-289            9560      0.08%     86.63% # Distribution of cycle latency between the first time a load is issued and its completion (Unspecified)
system.o3Cpu7.lsq0.loadToUse::290-299            8596      0.07%     86.71% # Distribution of cycle latency between the first time a load is issued and its completion (Unspecified)
system.o3Cpu7.lsq0.loadToUse::overflows       1580603     13.29%    100.00% # Distribution of cycle latency between the first time a load is issued and its completion (Unspecified)
system.o3Cpu7.lsq0.loadToUse::min_value             2                       # Distribution of cycle latency between the first time a load is issued and its completion (Unspecified)
system.o3Cpu7.lsq0.loadToUse::max_value          3585                       # Distribution of cycle latency between the first time a load is issued and its completion (Unspecified)
system.o3Cpu7.lsq0.loadToUse::total          11890245                       # Distribution of cycle latency between the first time a load is issued and its completion (Unspecified)
system.o3Cpu7.mmu.dtb.rdAccesses             13088726                       # TLB accesses on read requests (Count)
system.o3Cpu7.mmu.dtb.wrAccesses               719655                       # TLB accesses on write requests (Count)
system.o3Cpu7.mmu.dtb.rdMisses                 192127                       # TLB misses on read requests (Count)
system.o3Cpu7.mmu.dtb.wrMisses                  52904                       # TLB misses on write requests (Count)
system.o3Cpu7.mmu.dtb.walker.power_state.pwrStateResidencyTicks::UNDEFINED  59679153200                       # Cumulative time (in ticks) in various power states (Tick)
system.o3Cpu7.mmu.itb.rdAccesses                    0                       # TLB accesses on read requests (Count)
system.o3Cpu7.mmu.itb.wrAccesses              4210074                       # TLB accesses on write requests (Count)
system.o3Cpu7.mmu.itb.rdMisses                      0                       # TLB misses on read requests (Count)
system.o3Cpu7.mmu.itb.wrMisses                    761                       # TLB misses on write requests (Count)
system.o3Cpu7.mmu.itb.walker.power_state.pwrStateResidencyTicks::UNDEFINED  59679153200                       # Cumulative time (in ticks) in various power states (Tick)
system.o3Cpu7.power_state.pwrStateResidencyTicks::OFF  59679153200                       # Cumulative time (in ticks) in various power states (Tick)
system.o3Cpu7.rename.squashCycles               92241                       # Number of cycles rename is squashing (Cycle)
system.o3Cpu7.rename.idleCycles               3827682                       # Number of cycles rename is idle (Cycle)
system.o3Cpu7.rename.blockCycles             89006938                       # Number of cycles rename is blocking (Cycle)
system.o3Cpu7.rename.serializeStallCycles       655105                       # count of cycles rename stalled for serializing inst (Cycle)
system.o3Cpu7.rename.runCycles               10043994                       # Number of cycles rename is running (Cycle)
system.o3Cpu7.rename.unblockCycles          189034052                       # Number of cycles rename is unblocking (Cycle)
system.o3Cpu7.rename.renamedInsts            43827240                       # Number of instructions processed by rename (Count)
system.o3Cpu7.rename.ROBFullEvents              79513                       # Number of times rename has blocked due to ROB full (Count)
system.o3Cpu7.rename.IQFullEvents             7105769                       # Number of times rename has blocked due to IQ full (Count)
system.o3Cpu7.rename.LQFullEvents           185510485                       # Number of times rename has blocked due to LQ full (Count)
system.o3Cpu7.rename.SQFullEvents             2197470                       # Number of times rename has blocked due to SQ full (Count)
system.o3Cpu7.rename.renamedOperands         80487217                       # Number of destination operands rename has renamed (Count)
system.o3Cpu7.rename.lookups                156821752                       # Number of register rename lookups that rename has made (Count)
system.o3Cpu7.rename.intLookups              58107441                       # Number of integer rename lookups (Count)
system.o3Cpu7.rename.fpLookups                 260121                       # Number of floating rename lookups (Count)
system.o3Cpu7.rename.committedMaps           74267083                       # Number of HB maps that are committed (Count)
system.o3Cpu7.rename.undoneMaps               6220080                       # Number of HB maps that are undone due to squashing (Count)
system.o3Cpu7.rename.serializing                 4647                       # count of serializing insts renamed (Count)
system.o3Cpu7.rename.tempSerializing             4699                       # count of temporary serializing insts renamed (Count)
system.o3Cpu7.rename.skidInsts                9027572                       # count of insts added to the skid buffer (Count)
system.o3Cpu7.rob.reads                     327233675                       # The number of ROB reads (Count)
system.o3Cpu7.rob.writes                     87926082                       # The number of ROB writes (Count)
system.o3Cpu7.thread_0.numInsts              23458812                       # Number of Instructions committed (Count)
system.o3Cpu7.thread_0.numOps                40091409                       # Number of Ops committed (Count)
system.o3Cpu7.thread_0.numMemRefs                   0                       # Number of Memory References (Count)
system.pc.bad_addr.power_state.pwrStateResidencyTicks::UNDEFINED  59679153200                       # Cumulative time (in ticks) in various power states (Tick)
system.pc.com_1.power_state.pwrStateResidencyTicks::UNDEFINED  59679153200                       # Cumulative time (in ticks) in various power states (Tick)
system.pc.default_bus.power_state.pwrStateResidencyTicks::UNDEFINED  59679153200                       # Cumulative time (in ticks) in various power states (Tick)
system.pc.empty_isa.power_state.pwrStateResidencyTicks::UNDEFINED  59679153200                       # Cumulative time (in ticks) in various power states (Tick)
system.pc.fake_com_2.power_state.pwrStateResidencyTicks::UNDEFINED  59679153200                       # Cumulative time (in ticks) in various power states (Tick)
system.pc.fake_com_3.power_state.pwrStateResidencyTicks::UNDEFINED  59679153200                       # Cumulative time (in ticks) in various power states (Tick)
system.pc.fake_com_4.power_state.pwrStateResidencyTicks::UNDEFINED  59679153200                       # Cumulative time (in ticks) in various power states (Tick)
system.pc.fake_floppy.power_state.pwrStateResidencyTicks::UNDEFINED  59679153200                       # Cumulative time (in ticks) in various power states (Tick)
system.pc.pci_host.power_state.pwrStateResidencyTicks::UNDEFINED  59679153200                       # Cumulative time (in ticks) in various power states (Tick)
system.pc.south_bridge.cmos.power_state.pwrStateResidencyTicks::UNDEFINED  59679153200                       # Cumulative time (in ticks) in various power states (Tick)
system.pc.south_bridge.dma1.power_state.pwrStateResidencyTicks::UNDEFINED  59679153200                       # Cumulative time (in ticks) in various power states (Tick)
system.pc.south_bridge.ide.disks0.IdeDisk.dmaReadFullPages            0                       # Number of full page size DMA reads (not PRD). (Count)
system.pc.south_bridge.ide.disks0.IdeDisk.dmaReadBytes            0                       # Number of bytes transfered via DMA reads (not PRD). (Byte)
system.pc.south_bridge.ide.disks0.IdeDisk.dmaReadTxs            0                       # Number of DMA read transactions (not PRD). (Count)
system.pc.south_bridge.ide.disks0.IdeDisk.dmaWriteFullPages            0                       # Number of full page size DMA writes. (Count)
system.pc.south_bridge.ide.disks0.IdeDisk.dmaWriteBytes            0                       # Number of bytes transfered via DMA writes. (Byte)
system.pc.south_bridge.ide.disks0.IdeDisk.dmaWriteTxs            0                       # Number of DMA write transactions. (Count)
system.pc.south_bridge.ide.disks1.IdeDisk.dmaReadFullPages            0                       # Number of full page size DMA reads (not PRD). (Count)
system.pc.south_bridge.ide.disks1.IdeDisk.dmaReadBytes            0                       # Number of bytes transfered via DMA reads (not PRD). (Byte)
system.pc.south_bridge.ide.disks1.IdeDisk.dmaReadTxs            0                       # Number of DMA read transactions (not PRD). (Count)
system.pc.south_bridge.ide.disks1.IdeDisk.dmaWriteFullPages            0                       # Number of full page size DMA writes. (Count)
system.pc.south_bridge.ide.disks1.IdeDisk.dmaWriteBytes            0                       # Number of bytes transfered via DMA writes. (Byte)
system.pc.south_bridge.ide.disks1.IdeDisk.dmaWriteTxs            0                       # Number of DMA write transactions. (Count)
system.pc.south_bridge.ide.power_state.pwrStateResidencyTicks::UNDEFINED  59679153200                       # Cumulative time (in ticks) in various power states (Tick)
system.pc.south_bridge.io_apic.power_state.pwrStateResidencyTicks::UNDEFINED  59679153200                       # Cumulative time (in ticks) in various power states (Tick)
system.pc.south_bridge.keyboard.power_state.pwrStateResidencyTicks::UNDEFINED  59679153200                       # Cumulative time (in ticks) in various power states (Tick)
system.pc.south_bridge.pic1.power_state.pwrStateResidencyTicks::UNDEFINED  59679153200                       # Cumulative time (in ticks) in various power states (Tick)
system.pc.south_bridge.pic2.power_state.pwrStateResidencyTicks::UNDEFINED  59679153200                       # Cumulative time (in ticks) in various power states (Tick)
system.pc.south_bridge.pit.power_state.pwrStateResidencyTicks::UNDEFINED  59679153200                       # Cumulative time (in ticks) in various power states (Tick)
system.pc.south_bridge.speaker.power_state.pwrStateResidencyTicks::UNDEFINED  59679153200                       # Cumulative time (in ticks) in various power states (Tick)
system.workload.inst.arm                            0                       # number of arm instructions executed (Count)
system.workload.inst.quiesce                        0                       # number of quiesce instructions executed (Count)

---------- End Simulation Statistics   ----------
