
---------- Begin Simulation Statistics ----------
simSeconds                                   0.186534                       # Number of seconds simulated (Second)
simTicks                                 186534111640                       # Number of ticks simulated (Tick)
finalTick                                225003705903400                       # Number of ticks from beginning of simulation (restored from checkpoints and never reset) (Tick)
simFreq                                  1000000000000                       # The number of ticks per simulated second ((Tick/Second))
hostSeconds                                   5818.14                       # Real time elapsed on the host (Second)
hostTickRate                                 32060776                       # The number of ticks simulated per host second (ticks/s) ((Tick/Second))
hostMemory                                   71438476                       # Number of bytes of host memory used (Byte)
simInsts                                    412578062                       # Number of instructions simulated (Count)
simOps                                      737881081                       # Number of ops (including micro ops) simulated (Count)
hostInstRate                                    70912                       # Simulator instruction rate (inst/s) ((Count/Second))
hostOpRate                                     126824                       # Simulator op (including micro ops) rate (op/s) ((Count/Second))
system.caches.delayHistogram::bucket_size            8                       # delay histogram for all message (Unspecified)
system.caches.delayHistogram::max_bucket           79                       # delay histogram for all message (Unspecified)
system.caches.delayHistogram::samples        22523729                       # delay histogram for all message (Unspecified)
system.caches.delayHistogram::mean           1.150533                       # delay histogram for all message (Unspecified)
system.caches.delayHistogram::stdev          2.798994                       # delay histogram for all message (Unspecified)
system.caches.delayHistogram             |    19345142     85.89%     85.89% |     3177120     14.11%     99.99% |        1398      0.01%    100.00% |          21      0.00%    100.00% |          11      0.00%    100.00% |          16      0.00%    100.00% |          15      0.00%    100.00% |           3      0.00%    100.00% |           3      0.00%    100.00% |           0      0.00%    100.00% # delay histogram for all message (Unspecified)
system.caches.delayHistogram::total          22523729                       # delay histogram for all message (Unspecified)
system.caches.m_outstandReqHistSeqr::bucket_size            2                       (Unspecified)
system.caches.m_outstandReqHistSeqr::max_bucket           19                       (Unspecified)
system.caches.m_outstandReqHistSeqr::samples    302039957                       (Unspecified)
system.caches.m_outstandReqHistSeqr::mean     1.843379                       (Unspecified)
system.caches.m_outstandReqHistSeqr::gmean     1.486569                       (Unspecified)
system.caches.m_outstandReqHistSeqr::stdev     1.671400                       (Unspecified)
system.caches.m_outstandReqHistSeqr      |   185205355     61.32%     61.32% |    90339888     29.91%     91.23% |    13390164      4.43%     95.66% |     6197590      2.05%     97.71% |     3993438      1.32%     99.04% |     1701309      0.56%     99.60% |      743458      0.25%     99.84% |      329579      0.11%     99.95% |      139176      0.05%    100.00% |           0      0.00%    100.00% (Unspecified)
system.caches.m_outstandReqHistSeqr::total    302039957                       (Unspecified)
system.caches.m_latencyHistSeqr::bucket_size          512                       (Unspecified)
system.caches.m_latencyHistSeqr::max_bucket         5119                       (Unspecified)
system.caches.m_latencyHistSeqr::samples    305081974                       (Unspecified)
system.caches.m_latencyHistSeqr::mean        3.993456                       (Unspecified)
system.caches.m_latencyHistSeqr::gmean       1.061693                       (Unspecified)
system.caches.m_latencyHistSeqr::stdev      48.052194                       (Unspecified)
system.caches.m_latencyHistSeqr          |   304416717     99.78%     99.78% |      493715      0.16%     99.94% |      140589      0.05%     99.99% |       23195      0.01%    100.00% |        4174      0.00%    100.00% |        3035      0.00%    100.00% |         430      0.00%    100.00% |          88      0.00%    100.00% |          23      0.00%    100.00% |           8      0.00%    100.00% (Unspecified)
system.caches.m_latencyHistSeqr::total      305081974                       (Unspecified)
system.caches.m_hitLatencyHistSeqr::bucket_size          256                       (Unspecified)
system.caches.m_hitLatencyHistSeqr::max_bucket         2559                       (Unspecified)
system.caches.m_hitLatencyHistSeqr::samples    301079754                       (Unspecified)
system.caches.m_hitLatencyHistSeqr::mean     1.010218                       (Unspecified)
system.caches.m_hitLatencyHistSeqr::gmean     1.007061                       (Unspecified)
system.caches.m_hitLatencyHistSeqr::stdev     0.269186                       (Unspecified)
system.caches.m_hitLatencyHistSeqr       |   301079737    100.00%    100.00% |           6      0.00%    100.00% |           2      0.00%    100.00% |           0      0.00%    100.00% |           7      0.00%    100.00% |           1      0.00%    100.00% |           0      0.00%    100.00% |           0      0.00%    100.00% |           0      0.00%    100.00% |           1      0.00%    100.00% (Unspecified)
system.caches.m_hitLatencyHistSeqr::total    301079754                       (Unspecified)
system.caches.m_missLatencyHistSeqr::bucket_size          512                       (Unspecified)
system.caches.m_missLatencyHistSeqr::max_bucket         5119                       (Unspecified)
system.caches.m_missLatencyHistSeqr::samples      4002220                       (Unspecified)
system.caches.m_missLatencyHistSeqr::mean   228.417083                       (Unspecified)
system.caches.m_missLatencyHistSeqr::gmean    56.491927                       (Unspecified)
system.caches.m_missLatencyHistSeqr::stdev   353.512385                       (Unspecified)
system.caches.m_missLatencyHistSeqr      |     3336974     83.38%     83.38% |      493713     12.34%     95.71% |      140581      3.51%     99.23% |       23195      0.58%     99.81% |        4173      0.10%     99.91% |        3035      0.08%     99.99% |         430      0.01%    100.00% |          88      0.00%    100.00% |          23      0.00%    100.00% |           8      0.00%    100.00% (Unspecified)
system.caches.m_missLatencyHistSeqr::total      4002220                       (Unspecified)
system.caches.delayVCHist.vnet_0::bucket_size            8                       # delay histogram for vnet_0 (Unspecified)
system.caches.delayVCHist.vnet_0::max_bucket           79                       # delay histogram for vnet_0 (Unspecified)
system.caches.delayVCHist.vnet_0::samples     11703543                       # delay histogram for vnet_0 (Unspecified)
system.caches.delayVCHist.vnet_0::mean       2.171056                       # delay histogram for vnet_0 (Unspecified)
system.caches.delayVCHist.vnet_0::stdev      3.563894                       # delay histogram for vnet_0 (Unspecified)
system.caches.delayVCHist.vnet_0         |     8534794     72.92%     72.92% |     3167576     27.07%     99.99% |        1120      0.01%    100.00% |           5      0.00%    100.00% |          11      0.00%    100.00% |          16      0.00%    100.00% |          15      0.00%    100.00% |           3      0.00%    100.00% |           3      0.00%    100.00% |           0      0.00%    100.00% # delay histogram for vnet_0 (Unspecified)
system.caches.delayVCHist.vnet_0::total      11703543                       # delay histogram for vnet_0 (Unspecified)
system.caches.delayVCHist.vnet_1::bucket_size            4                       # delay histogram for vnet_1 (Unspecified)
system.caches.delayVCHist.vnet_1::max_bucket           39                       # delay histogram for vnet_1 (Unspecified)
system.caches.delayVCHist.vnet_1::samples     10759940                       # delay histogram for vnet_1 (Unspecified)
system.caches.delayVCHist.vnet_1::mean       0.046953                       # delay histogram for vnet_1 (Unspecified)
system.caches.delayVCHist.vnet_1::stdev      0.475768                       # delay histogram for vnet_1 (Unspecified)
system.caches.delayVCHist.vnet_1         |    10689445     99.34%     99.34% |       60657      0.56%     99.91% |        8786      0.08%     99.99% |         758      0.01%    100.00% |         251      0.00%    100.00% |          27      0.00%    100.00% |          12      0.00%    100.00% |           4      0.00%    100.00% |           0      0.00%    100.00% |           0      0.00%    100.00% # delay histogram for vnet_1 (Unspecified)
system.caches.delayVCHist.vnet_1::total      10759940                       # delay histogram for vnet_1 (Unspecified)
system.caches.delayVCHist.vnet_2::bucket_size            1                       # delay histogram for vnet_2 (Unspecified)
system.caches.delayVCHist.vnet_2::max_bucket            9                       # delay histogram for vnet_2 (Unspecified)
system.caches.delayVCHist.vnet_2::samples        60246                       # delay histogram for vnet_2 (Unspecified)
system.caches.delayVCHist.vnet_2::mean       0.000664                       # delay histogram for vnet_2 (Unspecified)
system.caches.delayVCHist.vnet_2::stdev      0.036434                       # delay histogram for vnet_2 (Unspecified)
system.caches.delayVCHist.vnet_2         |       60226     99.97%     99.97% |           0      0.00%     99.97% |          20      0.03%    100.00% |           0      0.00%    100.00% |           0      0.00%    100.00% |           0      0.00%    100.00% |           0      0.00%    100.00% |           0      0.00%    100.00% |           0      0.00%    100.00% |           0      0.00%    100.00% # delay histogram for vnet_2 (Unspecified)
system.caches.delayVCHist.vnet_2::total         60246                       # delay histogram for vnet_2 (Unspecified)
system.caches.L1Cache_Controller.Load    |      124385      0.08%      0.08% |       82801      0.05%      0.13% |       93606      0.06%      0.19% |       82933      0.05%      0.25% |       82952      0.05%      0.30% |       82831      0.05%      0.35% |       84040      0.05%      0.40% |   155861519     99.60%    100.00% (Unspecified)
system.caches.L1Cache_Controller.Load::total    156495067                       (Unspecified)
system.caches.L1Cache_Controller.Ifetch  |      106640      0.09%      0.09% |       82824      0.07%      0.17% |       92131      0.08%      0.25% |       83324      0.07%      0.32% |       83340      0.07%      0.40% |       83825      0.07%      0.47% |       84688      0.07%      0.54% |   112800665     99.46%    100.00% (Unspecified)
system.caches.L1Cache_Controller.Ifetch::total    113417437                       (Unspecified)
system.caches.L1Cache_Controller.Store   |      106431      0.30%      0.30% |       65171      0.19%      0.49% |       69162      0.20%      0.68% |       65360      0.19%      0.87% |       65365      0.19%      1.06% |       66002      0.19%      1.24% |       66271      0.19%      1.43% |    34665717     98.57%    100.00% (Unspecified)
system.caches.L1Cache_Controller.Store::total     35169479                       (Unspecified)
system.caches.L1Cache_Controller.Inv     |       11041     18.97%     18.97% |        7023     12.06%     31.03% |        8417     14.46%     45.49% |        6965     11.96%     57.46% |        6960     11.96%     69.41% |        7125     12.24%     81.65% |        7314     12.56%     94.22% |        3367      5.78%    100.00% (Unspecified)
system.caches.L1Cache_Controller.Inv::total        58212                       (Unspecified)
system.caches.L1Cache_Controller.L1_Replacement |       18504      0.47%      0.47% |       10732      0.27%      0.74% |       12195      0.31%      1.05% |       10636      0.27%      1.32% |       10685      0.27%      1.59% |       10703      0.27%      1.86% |       10755      0.27%      2.13% |     3866183     97.87%    100.00% (Unspecified)
system.caches.L1Cache_Controller.L1_Replacement::total      3950393                       (Unspecified)
system.caches.L1Cache_Controller.Fwd_GETX |           0      0.00%      0.00% |           0      0.00%      0.00% |           0      0.00%      0.00% |           0      0.00%      0.00% |           0      0.00%      0.00% |           2     66.67%     66.67% |           1     33.33%    100.00% |           0      0.00%    100.00% (Unspecified)
system.caches.L1Cache_Controller.Fwd_GETX::total            3                       (Unspecified)
system.caches.L1Cache_Controller.Fwd_GETS |        1053     53.59%     53.59% |         140      7.12%     60.71% |         149      7.58%     68.30% |         134      6.82%     75.11% |         124      6.31%     81.42% |         147      7.48%     88.91% |         123      6.26%     95.17% |          95      4.83%    100.00% (Unspecified)
system.caches.L1Cache_Controller.Fwd_GETS::total         1965                       (Unspecified)
system.caches.L1Cache_Controller.Fwd_GET_INSTR |          66    100.00%    100.00% |           0      0.00%    100.00% |           0      0.00%    100.00% |           0      0.00%    100.00% |           0      0.00%    100.00% |           0      0.00%    100.00% |           0      0.00%    100.00% |           0      0.00%    100.00% (Unspecified)
system.caches.L1Cache_Controller.Fwd_GET_INSTR::total           66                       (Unspecified)
system.caches.L1Cache_Controller.Data    |           4     13.79%     13.79% |           1      3.45%     17.24% |           2      6.90%     24.14% |           1      3.45%     27.59% |           1      3.45%     31.03% |           0      0.00%     31.03% |           0      0.00%     31.03% |          20     68.97%    100.00% (Unspecified)
system.caches.L1Cache_Controller.Data::total           29                       (Unspecified)
system.caches.L1Cache_Controller.Data_Exclusive |        1899      0.05%      0.05% |        1655      0.04%      0.09% |        2077      0.05%      0.15% |        1633      0.04%      0.19% |        1609      0.04%      0.23% |        1633      0.04%      0.27% |        1727      0.04%      0.32% |     3833265     99.68%    100.00% (Unspecified)
system.caches.L1Cache_Controller.Data_Exclusive::total      3845498                       (Unspecified)
system.caches.L1Cache_Controller.DataS_fromL1 |         357     17.58%     17.58% |        1058     52.09%     69.67% |          42      2.07%     71.74% |          45      2.22%     73.95% |          57      2.81%     76.76% |         296     14.57%     91.33% |         120      5.91%     97.24% |          56      2.76%    100.00% (Unspecified)
system.caches.L1Cache_Controller.DataS_fromL1::total         2031                       (Unspecified)
system.caches.L1Cache_Controller.Data_all_Acks |       22776     14.86%     14.86% |       14770      9.63%     24.49% |       17297     11.28%     35.77% |       15732     10.26%     46.04% |       15726     10.26%     56.30% |       15729     10.26%     66.56% |       16009     10.44%     77.00% |       35261     23.00%    100.00% (Unspecified)
system.caches.L1Cache_Controller.Data_all_Acks::total       153300                       (Unspecified)
system.caches.L1Cache_Controller.Ack     |        5370     75.99%     75.99% |         175      2.48%     78.46% |         190      2.69%     81.15% |         207      2.93%     84.08% |         219      3.10%     87.18% |         293      4.15%     91.33% |         301      4.26%     95.59% |         312      4.41%    100.00% (Unspecified)
system.caches.L1Cache_Controller.Ack::total         7067                       (Unspecified)
system.caches.L1Cache_Controller.Ack_all |         810     58.23%     58.23% |          60      4.31%     62.54% |          74      5.32%     67.86% |          78      5.61%     73.47% |          76      5.46%     78.94% |          82      5.90%     84.83% |          83      5.97%     90.80% |         128      9.20%    100.00% (Unspecified)
system.caches.L1Cache_Controller.Ack_all::total         1391                       (Unspecified)
system.caches.L1Cache_Controller.WB_Ack  |         141      0.00%      0.00% |           1      0.00%      0.00% |           0      0.00%      0.00% |           0      0.00%      0.00% |           9      0.00%      0.00% |           0      0.00%      0.00% |           0      0.00%      0.00% |     3836444    100.00%    100.00% (Unspecified)
system.caches.L1Cache_Controller.WB_Ack::total      3836595                       (Unspecified)
system.caches.L1Cache_Controller.NP.Load |         178      0.00%      0.00% |         106      0.00%      0.01% |         447      0.01%      0.02% |          53      0.00%      0.02% |         130      0.00%      0.02% |         103      0.00%      0.03% |         111      0.00%      0.03% |     3845866     99.97%    100.00% (Unspecified)
system.caches.L1Cache_Controller.NP.Load::total      3846994                       (Unspecified)
system.caches.L1Cache_Controller.NP.Ifetch |       18403     18.92%     18.92% |       10703     11.01%     29.93% |       12247     12.59%     42.52% |       10660     10.96%     53.48% |       10622     10.92%     64.41% |       10743     11.05%     75.45% |       10810     11.12%     86.57% |       13061     13.43%    100.00% (Unspecified)
system.caches.L1Cache_Controller.NP.Ifetch::total        97249                       (Unspecified)
system.caches.L1Cache_Controller.NP.Store |          48      0.64%      0.64% |           0      0.00%      0.64% |          51      0.69%      1.33% |           0      0.00%      1.33% |           9      0.12%      1.45% |           7      0.09%      1.55% |          10      0.13%      1.68% |        7317     98.32%    100.00% (Unspecified)
system.caches.L1Cache_Controller.NP.Store::total         7442                       (Unspecified)
system.caches.L1Cache_Controller.NP.Inv  |         534     11.47%     11.47% |         382      8.21%     19.68% |        1262     27.12%     46.80% |         355      7.63%     54.43% |         367      7.89%     62.31% |         362      7.78%     70.09% |         385      8.27%     78.36% |        1007     21.64%    100.00% (Unspecified)
system.caches.L1Cache_Controller.NP.Inv::total         4654                       (Unspecified)
system.caches.L1Cache_Controller.I.Load  |        2441     11.25%     11.25% |        3159     14.56%     25.82% |        3234     14.91%     40.73% |        3203     14.77%     55.50% |        3122     14.39%     69.89% |        3203     14.77%     84.66% |        3301     15.22%     99.88% |          26      0.12%    100.00% (Unspecified)
system.caches.L1Cache_Controller.I.Load::total        21689                       (Unspecified)
system.caches.L1Cache_Controller.I.Ifetch |        2564     13.43%     13.43% |        2357     12.35%     25.78% |        2305     12.08%     37.85% |        2355     12.34%     50.19% |        2358     12.35%     62.54% |        2413     12.64%     75.18% |        2405     12.60%     87.78% |        2332     12.22%    100.00% (Unspecified)
system.caches.L1Cache_Controller.I.Ifetch::total        19089                       (Unspecified)
system.caches.L1Cache_Controller.I.Store |        1402     16.70%     16.70% |        1159     13.81%     30.51% |        1134     13.51%     44.01% |        1140     13.58%     57.59% |        1152     13.72%     71.32% |        1189     14.16%     85.48% |        1219     14.52%    100.00% |           0      0.00%    100.00% (Unspecified)
system.caches.L1Cache_Controller.I.Store::total         8395                       (Unspecified)
system.caches.L1Cache_Controller.I.L1_Replacement |         185      3.71%      3.71% |         107      2.15%      5.85% |         161      3.23%      9.08% |          78      1.56%     10.65% |         134      2.69%     13.33% |          62      1.24%     14.57% |          80      1.60%     16.18% |        4181     83.82%    100.00% (Unspecified)
system.caches.L1Cache_Controller.I.L1_Replacement::total         4988                       (Unspecified)
system.caches.L1Cache_Controller.S.Load  |       16901     10.02%     10.02% |       19415     11.51%     21.52% |       19199     11.38%     32.90% |       18778     11.13%     44.03% |       18734     11.10%     55.13% |       19102     11.32%     66.45% |       19056     11.29%     77.75% |       37549     22.25%    100.00% (Unspecified)
system.caches.L1Cache_Controller.S.Load::total       168734                       (Unspecified)
system.caches.L1Cache_Controller.S.Ifetch |       85673      0.08%      0.08% |       69764      0.06%      0.14% |       77579      0.07%      0.21% |       70309      0.06%      0.27% |       70360      0.06%      0.33% |       70669      0.06%      0.39% |       71473      0.06%      0.46% |   112785272     99.54%    100.00% (Unspecified)
system.caches.L1Cache_Controller.S.Ifetch::total    113301099                       (Unspecified)
system.caches.L1Cache_Controller.S.Store |         806     59.18%     59.18% |          59      4.33%     63.51% |          72      5.29%     68.80% |          77      5.65%     74.45% |          75      5.51%     79.96% |          82      6.02%     85.98% |          83      6.09%     92.07% |         108      7.93%    100.00% (Unspecified)
system.caches.L1Cache_Controller.S.Store::total         1362                       (Unspecified)
system.caches.L1Cache_Controller.S.Inv   |        3601     12.08%     12.08% |        3933     13.19%     25.26% |        4001     13.42%     38.68% |        3940     13.21%     51.89% |        3931     13.18%     65.07% |        4050     13.58%     78.66% |        4063     13.62%     92.28% |        2302      7.72%    100.00% (Unspecified)
system.caches.L1Cache_Controller.S.Inv::total        29821                       (Unspecified)
system.caches.L1Cache_Controller.S.L1_Replacement |       18178     16.71%     16.71% |       10624      9.76%     26.47% |       12034     11.06%     37.53% |       10558      9.70%     47.23% |       10542      9.69%     56.92% |       10641      9.78%     66.70% |       10675      9.81%     76.51% |       25557     23.49%    100.00% (Unspecified)
system.caches.L1Cache_Controller.S.L1_Replacement::total       108809                       (Unspecified)
system.caches.L1Cache_Controller.E.Load  |       19363      0.10%      0.10% |       16763      0.09%      0.20% |       22544      0.12%      0.32% |       17199      0.09%      0.41% |       17138      0.09%      0.50% |       16754      0.09%      0.59% |       17352      0.09%      0.69% |    18360407     99.31%    100.00% (Unspecified)
system.caches.L1Cache_Controller.E.Load::total     18487520                       (Unspecified)
system.caches.L1Cache_Controller.E.Store |         465      0.01%      0.01% |         380      0.01%      0.03% |         394      0.01%      0.04% |         332      0.01%      0.05% |         322      0.01%      0.06% |         341      0.01%      0.07% |         350      0.01%      0.08% |     3164799     99.92%    100.00% (Unspecified)
system.caches.L1Cache_Controller.E.Store::total      3167383                       (Unspecified)
system.caches.L1Cache_Controller.E.Inv   |        1226     13.58%     13.58% |        1209     13.39%     26.97% |        1607     17.80%     44.76% |        1237     13.70%     58.46% |        1225     13.57%     72.03% |        1206     13.36%     85.38% |        1301     14.41%     99.79% |          19      0.21%    100.00% (Unspecified)
system.caches.L1Cache_Controller.E.Inv::total         9030                       (Unspecified)
system.caches.L1Cache_Controller.E.L1_Replacement |           0      0.00%      0.00% |           1      0.00%      0.00% |           0      0.00%      0.00% |           0      0.00%      0.00% |           0      0.00%      0.00% |           0      0.00%      0.00% |           0      0.00%      0.00% |      668437    100.00%    100.00% (Unspecified)
system.caches.L1Cache_Controller.E.L1_Replacement::total       668438                       (Unspecified)
system.caches.L1Cache_Controller.E.Fwd_GETX |           0      0.00%      0.00% |           0      0.00%      0.00% |           0      0.00%      0.00% |           0      0.00%      0.00% |           0      0.00%      0.00% |           2     66.67%     66.67% |           1     33.33%    100.00% |           0      0.00%    100.00% (Unspecified)
system.caches.L1Cache_Controller.E.Fwd_GETX::total            3                       (Unspecified)
system.caches.L1Cache_Controller.E.Fwd_GETS |         193     36.07%     36.07% |          62     11.59%     47.66% |          64     11.96%     59.63% |          46      8.60%     68.22% |          39      7.29%     75.51% |          64     11.96%     87.48% |          57     10.65%     98.13% |          10      1.87%    100.00% (Unspecified)
system.caches.L1Cache_Controller.E.Fwd_GETS::total          535                       (Unspecified)
system.caches.L1Cache_Controller.E.Fwd_GET_INSTR |          66    100.00%    100.00% |           0      0.00%    100.00% |           0      0.00%    100.00% |           0      0.00%    100.00% |           0      0.00%    100.00% |           0      0.00%    100.00% |           0      0.00%    100.00% |           0      0.00%    100.00% (Unspecified)
system.caches.L1Cache_Controller.E.Fwd_GET_INSTR::total           66                       (Unspecified)
system.caches.L1Cache_Controller.M.Load  |       85502      0.06%      0.06% |       43358      0.03%      0.10% |       48182      0.04%      0.13% |       43700      0.03%      0.16% |       43828      0.03%      0.20% |       43669      0.03%      0.23% |       44220      0.03%      0.26% |   133617662     99.74%    100.00% (Unspecified)
system.caches.L1Cache_Controller.M.Load::total    133970121                       (Unspecified)
system.caches.L1Cache_Controller.M.Store |      103710      0.32%      0.32% |       63573      0.20%      0.52% |       67511      0.21%      0.73% |       63811      0.20%      0.93% |       63807      0.20%      1.13% |       64383      0.20%      1.33% |       64609      0.20%      1.54% |    31493493     98.46%    100.00% (Unspecified)
system.caches.L1Cache_Controller.M.Store::total     31984897                       (Unspecified)
system.caches.L1Cache_Controller.M.Inv   |        5680     38.62%     38.62% |        1499     10.19%     48.82% |        1547     10.52%     59.34% |        1433      9.74%     69.08% |        1436      9.76%     78.85% |        1507     10.25%     89.09% |        1565     10.64%     99.73% |          39      0.27%    100.00% (Unspecified)
system.caches.L1Cache_Controller.M.Inv::total        14706                       (Unspecified)
system.caches.L1Cache_Controller.M.L1_Replacement |         141      0.00%      0.00% |           0      0.00%      0.00% |           0      0.00%      0.00% |           0      0.00%      0.00% |           9      0.00%      0.00% |           0      0.00%      0.00% |           0      0.00%      0.00% |     3168007    100.00%    100.00% (Unspecified)
system.caches.L1Cache_Controller.M.L1_Replacement::total      3168157                       (Unspecified)
system.caches.L1Cache_Controller.M.Fwd_GETS |         860     60.14%     60.14% |          78      5.45%     65.59% |          85      5.94%     71.54% |          88      6.15%     77.69% |          85      5.94%     83.64% |          83      5.80%     89.44% |          66      4.62%     94.06% |          85      5.94%    100.00% (Unspecified)
system.caches.L1Cache_Controller.M.Fwd_GETS::total         1430                       (Unspecified)
system.caches.L1Cache_Controller.IS.Inv  |           0      0.00%      0.00% |           0      0.00%      0.00% |           0      0.00%      0.00% |           0      0.00%      0.00% |           1    100.00%    100.00% |           0      0.00%    100.00% |           0      0.00%    100.00% |           0      0.00%    100.00% (Unspecified)
system.caches.L1Cache_Controller.IS.Inv::total            1                       (Unspecified)
system.caches.L1Cache_Controller.IS.L1_Replacement |           0      0.00%      0.00% |           0      0.00%      0.00% |           0      0.00%      0.00% |           0      0.00%      0.00% |           0      0.00%      0.00% |           0      0.00%      0.00% |           0      0.00%      0.00% |           1    100.00%    100.00% (Unspecified)
system.caches.L1Cache_Controller.IS.L1_Replacement::total            1                       (Unspecified)
system.caches.L1Cache_Controller.IS.Data_Exclusive |        1899      0.05%      0.05% |        1655      0.04%      0.09% |        2077      0.05%      0.15% |        1633      0.04%      0.19% |        1609      0.04%      0.23% |        1633      0.04%      0.27% |        1727      0.04%      0.32% |     3833265     99.68%    100.00% (Unspecified)
system.caches.L1Cache_Controller.IS.Data_Exclusive::total      3845498                       (Unspecified)
system.caches.L1Cache_Controller.IS.DataS_fromL1 |         357     17.58%     17.58% |        1058     52.09%     69.67% |          42      2.07%     71.74% |          45      2.22%     73.95% |          57      2.81%     76.76% |         296     14.57%     91.33% |         120      5.91%     97.24% |          56      2.76%    100.00% (Unspecified)
system.caches.L1Cache_Controller.IS.DataS_fromL1::total         2031                       (Unspecified)
system.caches.L1Cache_Controller.IS.Data_all_Acks |       21330     15.51%     15.51% |       13612      9.90%     25.41% |       16114     11.72%     37.13% |       14593     10.61%     47.75% |       14565     10.59%     58.34% |       14533     10.57%     68.91% |       14780     10.75%     79.66% |       27964     20.34%    100.00% (Unspecified)
system.caches.L1Cache_Controller.IS.Data_all_Acks::total       137491                       (Unspecified)
system.caches.L1Cache_Controller.IM.Data |           4     13.79%     13.79% |           1      3.45%     17.24% |           2      6.90%     24.14% |           1      3.45%     27.59% |           1      3.45%     31.03% |           0      0.00%     31.03% |           0      0.00%     31.03% |          20     68.97%    100.00% (Unspecified)
system.caches.L1Cache_Controller.IM.Data::total           29                       (Unspecified)
system.caches.L1Cache_Controller.IM.Data_all_Acks |        1446      9.15%      9.15% |        1158      7.33%     16.47% |        1183      7.48%     23.96% |        1139      7.21%     31.16% |        1160      7.34%     38.50% |        1196      7.57%     46.07% |        1229      7.77%     53.84% |        7297     46.16%    100.00% (Unspecified)
system.caches.L1Cache_Controller.IM.Data_all_Acks::total        15808                       (Unspecified)
system.caches.L1Cache_Controller.SM.Ack  |        5370     75.99%     75.99% |         175      2.48%     78.46% |         190      2.69%     81.15% |         207      2.93%     84.08% |         219      3.10%     87.18% |         293      4.15%     91.33% |         301      4.26%     95.59% |         312      4.41%    100.00% (Unspecified)
system.caches.L1Cache_Controller.SM.Ack::total         7067                       (Unspecified)
system.caches.L1Cache_Controller.SM.Ack_all |         810     58.23%     58.23% |          60      4.31%     62.54% |          74      5.32%     67.86% |          78      5.61%     73.47% |          76      5.46%     78.94% |          82      5.90%     84.83% |          83      5.97%     90.80% |         128      9.20%    100.00% (Unspecified)
system.caches.L1Cache_Controller.SM.Ack_all::total         1391                       (Unspecified)
system.caches.L1Cache_Controller.IS_I.Data_all_Acks |           0      0.00%      0.00% |           0      0.00%      0.00% |           0      0.00%      0.00% |           0      0.00%      0.00% |           1    100.00%    100.00% |           0      0.00%    100.00% |           0      0.00%    100.00% |           0      0.00%    100.00% (Unspecified)
system.caches.L1Cache_Controller.IS_I.Data_all_Acks::total            1                       (Unspecified)
system.caches.L1Cache_Controller.M_I.Load |           0      0.00%      0.00% |           0      0.00%      0.00% |           0      0.00%      0.00% |           0      0.00%      0.00% |           0      0.00%      0.00% |           0      0.00%      0.00% |           0      0.00%      0.00% |           9    100.00%    100.00% (Unspecified)
system.caches.L1Cache_Controller.M_I.Load::total            9                       (Unspecified)
system.caches.L1Cache_Controller.M_I.WB_Ack |         141      0.00%      0.00% |           1      0.00%      0.00% |           0      0.00%      0.00% |           0      0.00%      0.00% |           9      0.00%      0.00% |           0      0.00%      0.00% |           0      0.00%      0.00% |     3836444    100.00%    100.00% (Unspecified)
system.caches.L1Cache_Controller.M_I.WB_Ack::total      3836595                       (Unspecified)
system.caches.Directory_Controller.Fetch |        5730      0.40%      0.40% |     1424711     99.60%    100.00% (Unspecified)
system.caches.Directory_Controller.Fetch::total      1430441                       (Unspecified)
system.caches.Directory_Controller.Data  |         559      0.04%      0.04% |     1303373     99.96%    100.00% (Unspecified)
system.caches.Directory_Controller.Data::total      1303932                       (Unspecified)
system.caches.Directory_Controller.Memory_Data |        5730      0.40%      0.40% |     1424711     99.60%    100.00% (Unspecified)
system.caches.Directory_Controller.Memory_Data::total      1430441                       (Unspecified)
system.caches.Directory_Controller.Memory_Ack |         559      0.04%      0.04% |     1303373     99.96%    100.00% (Unspecified)
system.caches.Directory_Controller.Memory_Ack::total      1303932                       (Unspecified)
system.caches.Directory_Controller.CleanReplacement |        4901      3.87%      3.87% |      121608     96.13%    100.00% (Unspecified)
system.caches.Directory_Controller.CleanReplacement::total       126509                       (Unspecified)
system.caches.Directory_Controller.I.Fetch |        5730      0.40%      0.40% |     1424711     99.60%    100.00% (Unspecified)
system.caches.Directory_Controller.I.Fetch::total      1430441                       (Unspecified)
system.caches.Directory_Controller.M.Data |         559      0.04%      0.04% |     1303373     99.96%    100.00% (Unspecified)
system.caches.Directory_Controller.M.Data::total      1303932                       (Unspecified)
system.caches.Directory_Controller.M.CleanReplacement |        4901      3.87%      3.87% |      121608     96.13%    100.00% (Unspecified)
system.caches.Directory_Controller.M.CleanReplacement::total       126509                       (Unspecified)
system.caches.Directory_Controller.IM.Memory_Data |        5730      0.40%      0.40% |     1424711     99.60%    100.00% (Unspecified)
system.caches.Directory_Controller.IM.Memory_Data::total      1430441                       (Unspecified)
system.caches.Directory_Controller.MI.Memory_Ack |         559      0.04%      0.04% |     1303373     99.96%    100.00% (Unspecified)
system.caches.Directory_Controller.MI.Memory_Ack::total      1303932                       (Unspecified)
system.caches.L2Cache_Controller.L1_GET_INSTR |       18899     16.24%     16.24% |       19649     16.89%     33.13% |       11214      9.64%     42.77% |        4344      3.73%     46.50% |       15172     13.04%     59.54% |       18623     16.01%     75.55% |       13617     11.70%     87.25% |       14836     12.75%    100.00% (Unspecified)
system.caches.L2Cache_Controller.L1_GET_INSTR::total       116354                       (Unspecified)
system.caches.L2Cache_Controller.L1_GETS |      488428     12.62%     12.62% |      484322     12.52%     25.14% |      482311     12.47%     37.61% |      481774     12.45%     50.06% |      482947     12.48%     62.54% |      482125     12.46%     75.00% |      483584     12.50%     87.50% |      483751     12.50%    100.00% (Unspecified)
system.caches.L2Cache_Controller.L1_GETS::total      3869242                       (Unspecified)
system.caches.L2Cache_Controller.L1_GETX |        2967     18.72%     18.72% |        2220     14.01%     32.73% |         596      3.76%     36.49% |        1513      9.55%     46.03% |        1697     10.71%     56.74% |        3305     20.85%     77.59% |        1397      8.81%     86.40% |        2155     13.60%    100.00% (Unspecified)
system.caches.L2Cache_Controller.L1_GETX::total        15850                       (Unspecified)
system.caches.L2Cache_Controller.L1_UPGRADE |         435     31.80%     31.80% |         190     13.89%     45.69% |          26      1.90%     47.59% |           2      0.15%     47.73% |         186     13.60%     61.33% |           2      0.15%     61.48% |         317     23.17%     84.65% |         210     15.35%    100.00% (Unspecified)
system.caches.L2Cache_Controller.L1_UPGRADE::total         1368                       (Unspecified)
system.caches.L2Cache_Controller.L1_PUTX |      480769     12.53%     12.53% |      480100     12.51%     25.04% |      478829     12.48%     37.53% |      479038     12.49%     50.01% |      478969     12.48%     62.50% |      479912     12.51%     75.00% |      478790     12.48%     87.48% |      480188     12.52%    100.00% (Unspecified)
system.caches.L2Cache_Controller.L1_PUTX::total      3836595                       (Unspecified)
system.caches.L2Cache_Controller.L2_Replacement |      162026     12.57%     12.57% |      161255     12.51%     25.07% |      160648     12.46%     37.53% |      160706     12.46%     49.99% |      161072     12.49%     62.49% |      161304     12.51%     75.00% |      160995     12.49%     87.48% |      161398     12.52%    100.00% (Unspecified)
system.caches.L2Cache_Controller.L2_Replacement::total      1289404                       (Unspecified)
system.caches.L2Cache_Controller.L2_Replacement_clean |       18724     13.28%     13.28% |       17932     12.71%     25.99% |       16296     11.55%     37.54% |       17637     12.51%     50.05% |       17243     12.23%     62.28% |       18421     13.06%     75.34% |       17135     12.15%     87.49% |       17649     12.51%    100.00% (Unspecified)
system.caches.L2Cache_Controller.L2_Replacement_clean::total       141037                       (Unspecified)
system.caches.L2Cache_Controller.Mem_Data |      180750     12.64%     12.64% |      179187     12.53%     25.16% |      176944     12.37%     37.53% |      178343     12.47%     50.00% |      178315     12.47%     62.47% |      179725     12.56%     75.03% |      178130     12.45%     87.48% |      179047     12.52%    100.00% (Unspecified)
system.caches.L2Cache_Controller.Mem_Data::total      1430441                       (Unspecified)
system.caches.L2Cache_Controller.Mem_Ack |      180750     12.64%     12.64% |      179187     12.53%     25.16% |      176944     12.37%     37.53% |      178343     12.47%     50.00% |      178315     12.47%     62.47% |      179725     12.56%     75.03% |      178130     12.45%     87.48% |      179047     12.52%    100.00% (Unspecified)
system.caches.L2Cache_Controller.Mem_Ack::total      1430441                       (Unspecified)
system.caches.L2Cache_Controller.WB_Data |        2687     16.65%     16.65% |        2056     12.74%     29.39% |        1048      6.49%     35.89% |        1908     11.82%     47.71% |        1607      9.96%     57.67% |        2839     17.59%     75.27% |        1357      8.41%     83.68% |        2634     16.32%    100.00% (Unspecified)
system.caches.L2Cache_Controller.WB_Data::total        16136                       (Unspecified)
system.caches.L2Cache_Controller.WB_Data_clean |         111     18.47%     18.47% |          34      5.66%     24.13% |          28      4.66%     28.79% |          39      6.49%     35.27% |          96     15.97%     51.25% |         103     17.14%     68.39% |         155     25.79%     94.18% |          35      5.82%    100.00% (Unspecified)
system.caches.L2Cache_Controller.WB_Data_clean::total          601                       (Unspecified)
system.caches.L2Cache_Controller.Ack     |        3186     14.84%     14.84% |        2792     13.00%     27.84% |        1848      8.61%     36.44% |        2651     12.35%     48.79% |        2429     11.31%     60.10% |        3012     14.03%     74.13% |        3419     15.92%     90.05% |        2137      9.95%    100.00% (Unspecified)
system.caches.L2Cache_Controller.Ack::total        21474                       (Unspecified)
system.caches.L2Cache_Controller.Ack_all |        2621     17.55%     17.55% |        1974     13.22%     30.76% |        1282      8.58%     39.35% |        1742     11.66%     51.01% |        2017     13.50%     64.52% |        1594     10.67%     75.19% |        2377     15.91%     91.10% |        1329      8.90%    100.00% (Unspecified)
system.caches.L2Cache_Controller.Ack_all::total        14936                       (Unspecified)
system.caches.L2Cache_Controller.Unblock |         593     29.20%     29.20% |         224     11.03%     40.23% |          47      2.31%     42.54% |          41      2.02%     44.56% |         316     15.56%     60.12% |         105      5.17%     65.29% |         461     22.70%     87.99% |         244     12.01%    100.00% (Unspecified)
system.caches.L2Cache_Controller.Unblock::total         2031                       (Unspecified)
system.caches.L2Cache_Controller.Exclusive_Unblock |      485402     12.57%     12.57% |      483505     12.52%     25.08% |      480688     12.44%     37.53% |      482004     12.48%     50.01% |      482050     12.48%     62.49% |      483719     12.52%     75.01% |      481790     12.47%     87.48% |      483539     12.52%    100.00% (Unspecified)
system.caches.L2Cache_Controller.Exclusive_Unblock::total      3862697                       (Unspecified)
system.caches.L2Cache_Controller.NP.L1_GET_INSTR |         685     12.81%     12.81% |         686     12.83%     25.64% |         527      9.86%     35.50% |         735     13.75%     49.24% |         587     10.98%     60.22% |         684     12.79%     73.01% |         763     14.27%     87.28% |         680     12.72%    100.00% (Unspecified)
system.caches.L2Cache_Controller.NP.L1_GET_INSTR::total         5347                       (Unspecified)
system.caches.L2Cache_Controller.NP.L1_GETS |      178326     12.59%     12.59% |      177120     12.51%     25.10% |      176139     12.44%     37.53% |      176763     12.48%     50.02% |      176862     12.49%     62.50% |      177061     12.50%     75.00% |      176857     12.49%     87.49% |      177141     12.51%    100.00% (Unspecified)
system.caches.L2Cache_Controller.NP.L1_GETS::total      1416269                       (Unspecified)
system.caches.L2Cache_Controller.NP.L1_GETX |        1739     19.71%     19.71% |        1381     15.65%     35.35% |         278      3.15%     38.50% |         845      9.58%     48.08% |         866      9.81%     57.89% |        1980     22.44%     80.33% |         510      5.78%     86.11% |        1226     13.89%    100.00% (Unspecified)
system.caches.L2Cache_Controller.NP.L1_GETX::total         8825                       (Unspecified)
system.caches.L2Cache_Controller.SS.L1_GET_INSTR |       18077     16.46%     16.46% |       18789     17.10%     33.56% |       10566      9.62%     43.18% |        3484      3.17%     46.35% |       14418     13.12%     59.47% |       17787     16.19%     75.66% |       12731     11.59%     87.25% |       14002     12.75%    100.00% (Unspecified)
system.caches.L2Cache_Controller.SS.L1_GET_INSTR::total       109854                       (Unspecified)
system.caches.L2Cache_Controller.SS.L1_GETS |        5598     27.17%     27.17% |        2936     14.25%     41.43% |        2154     10.46%     51.88% |        1189      5.77%     57.65% |        2226     10.81%     68.46% |        1529      7.42%     75.88% |        2792     13.55%     89.43% |        2177     10.57%    100.00% (Unspecified)
system.caches.L2Cache_Controller.SS.L1_GETS::total        20601                       (Unspecified)
system.caches.L2Cache_Controller.SS.L1_GETX |           2      6.90%      6.90% |           0      0.00%      6.90% |           0      0.00%      6.90% |           0      0.00%      6.90% |          25     86.21%     93.10% |           0      0.00%     93.10% |           1      3.45%     96.55% |           1      3.45%    100.00% (Unspecified)
system.caches.L2Cache_Controller.SS.L1_GETX::total           29                       (Unspecified)
system.caches.L2Cache_Controller.SS.L1_UPGRADE |         433     31.79%     31.79% |         190     13.95%     45.74% |          26      1.91%     47.65% |           2      0.15%     47.80% |         186     13.66%     61.45% |           2      0.15%     61.60% |         313     22.98%     84.58% |         210     15.42%    100.00% (Unspecified)
system.caches.L2Cache_Controller.SS.L1_UPGRADE::total         1362                       (Unspecified)
system.caches.L2Cache_Controller.SS.L2_Replacement |          89     37.39%     37.39% |           0      0.00%     37.39% |          13      5.46%     42.86% |           0      0.00%     42.86% |          33     13.87%     56.72% |           0      0.00%     56.72% |          91     38.24%     94.96% |          12      5.04%    100.00% (Unspecified)
system.caches.L2Cache_Controller.SS.L2_Replacement::total          238                       (Unspecified)
system.caches.L2Cache_Controller.SS.L2_Replacement_clean |         761     13.43%     13.43% |         700     12.35%     25.78% |         511      9.02%     34.79% |         763     13.46%     48.25% |         649     11.45%     59.70% |         780     13.76%     73.47% |         834     14.71%     88.18% |         670     11.82%    100.00% (Unspecified)
system.caches.L2Cache_Controller.SS.L2_Replacement_clean::total         5668                       (Unspecified)
system.caches.L2Cache_Controller.M.L1_GET_INSTR |           1     20.00%     20.00% |           0      0.00%     20.00% |           0      0.00%     20.00% |           0      0.00%     20.00% |           1     20.00%     40.00% |           1     20.00%     60.00% |           1     20.00%     80.00% |           1     20.00%    100.00% (Unspecified)
system.caches.L2Cache_Controller.M.L1_GET_INSTR::total            5                       (Unspecified)
system.caches.L2Cache_Controller.M.L1_GETS |      303730     12.50%     12.50% |      304004     12.51%     25.02% |      303943     12.51%     37.53% |      303749     12.50%     50.03% |      303328     12.49%     62.51% |      303389     12.49%     75.00% |      303271     12.48%     87.48% |      304053     12.52%    100.00% (Unspecified)
system.caches.L2Cache_Controller.M.L1_GETS::total      2429467                       (Unspecified)
system.caches.L2Cache_Controller.M.L1_GETX |        1226     17.56%     17.56% |         839     12.02%     29.58% |         318      4.56%     34.14% |         665      9.53%     43.67% |         803     11.50%     55.17% |        1320     18.91%     74.08% |         882     12.64%     86.72% |         927     13.28%    100.00% (Unspecified)
system.caches.L2Cache_Controller.M.L1_GETX::total         6980                       (Unspecified)
system.caches.L2Cache_Controller.M.L2_Replacement |      161924     12.56%     12.56% |      161255     12.51%     25.07% |      160634     12.46%     37.53% |      160706     12.47%     50.00% |      160956     12.49%     62.49% |      161304     12.51%     75.00% |      160901     12.48%     87.49% |      161308     12.51%    100.00% (Unspecified)
system.caches.L2Cache_Controller.M.L2_Replacement::total      1288988                       (Unspecified)
system.caches.L2Cache_Controller.M.L2_Replacement_clean |       14000     12.52%     12.52% |       14092     12.60%     25.12% |       13999     12.52%     37.64% |       13989     12.51%     50.16% |       13955     12.48%     62.64% |       13990     12.51%     75.15% |       13801     12.34%     87.49% |       13985     12.51%    100.00% (Unspecified)
system.caches.L2Cache_Controller.M.L2_Replacement_clean::total       111811                       (Unspecified)
system.caches.L2Cache_Controller.MT.L1_GET_INSTR |           7     10.61%     10.61% |          10     15.15%     25.76% |           7     10.61%     36.36% |           6      9.09%     45.45% |           7     10.61%     56.06% |          10     15.15%     71.21% |           9     13.64%     84.85% |          10     15.15%    100.00% (Unspecified)
system.caches.L2Cache_Controller.MT.L1_GET_INSTR::total           66                       (Unspecified)
system.caches.L2Cache_Controller.MT.L1_GETS |         586     29.82%     29.82% |         214     10.89%     40.71% |          40      2.04%     42.75% |          35      1.78%     44.53% |         309     15.73%     60.25% |          95      4.83%     65.09% |         452     23.00%     88.09% |         234     11.91%    100.00% (Unspecified)
system.caches.L2Cache_Controller.MT.L1_GETS::total         1965                       (Unspecified)
system.caches.L2Cache_Controller.MT.L1_GETX |           0      0.00%      0.00% |           0      0.00%      0.00% |           0      0.00%      0.00% |           0      0.00%      0.00% |           3    100.00%    100.00% |           0      0.00%    100.00% |           0      0.00%    100.00% |           0      0.00%    100.00% (Unspecified)
system.caches.L2Cache_Controller.MT.L1_GETX::total            3                       (Unspecified)
system.caches.L2Cache_Controller.MT.L1_PUTX |      480769     12.53%     12.53% |      480100     12.51%     25.04% |      478829     12.48%     37.53% |      479038     12.49%     50.01% |      478969     12.48%     62.50% |      479912     12.51%     75.00% |      478790     12.48%     87.48% |      480188     12.52%    100.00% (Unspecified)
system.caches.L2Cache_Controller.MT.L1_PUTX::total      3836595                       (Unspecified)
system.caches.L2Cache_Controller.MT.L2_Replacement |          13      7.30%      7.30% |           0      0.00%      7.30% |           1      0.56%      7.87% |           0      0.00%      7.87% |          83     46.63%     54.49% |           0      0.00%     54.49% |           3      1.69%     56.18% |          78     43.82%    100.00% (Unspecified)
system.caches.L2Cache_Controller.MT.L2_Replacement::total          178                       (Unspecified)
system.caches.L2Cache_Controller.MT.L2_Replacement_clean |        3963     16.82%     16.82% |        3140     13.33%     30.15% |        1786      7.58%     37.73% |        2885     12.25%     49.98% |        2639     11.20%     61.18% |        3651     15.50%     76.68% |        2500     10.61%     87.29% |        2994     12.71%    100.00% (Unspecified)
system.caches.L2Cache_Controller.MT.L2_Replacement_clean::total        23558                       (Unspecified)
system.caches.L2Cache_Controller.M_I.L1_GETS |           2      8.00%      8.00% |           0      0.00%      8.00% |           1      4.00%     12.00% |           4     16.00%     28.00% |           7     28.00%     56.00% |           5     20.00%     76.00% |           5     20.00%     96.00% |           1      4.00%    100.00% (Unspecified)
system.caches.L2Cache_Controller.M_I.L1_GETS::total           25                       (Unspecified)
system.caches.L2Cache_Controller.M_I.L1_GETX |           0      0.00%      0.00% |           0      0.00%      0.00% |           0      0.00%      0.00% |           3     23.08%     23.08% |           0      0.00%     23.08% |           5     38.46%     61.54% |           4     30.77%     92.31% |           1      7.69%    100.00% (Unspecified)
system.caches.L2Cache_Controller.M_I.L1_GETX::total           13                       (Unspecified)
system.caches.L2Cache_Controller.M_I.Mem_Ack |      180750     12.64%     12.64% |      179187     12.53%     25.16% |      176944     12.37%     37.53% |      178343     12.47%     50.00% |      178315     12.47%     62.47% |      179725     12.56%     75.03% |      178130     12.45%     87.48% |      179047     12.52%    100.00% (Unspecified)
system.caches.L2Cache_Controller.M_I.Mem_Ack::total      1430441                       (Unspecified)
system.caches.L2Cache_Controller.MT_I.WB_Data |          13      7.30%      7.30% |           0      0.00%      7.30% |           1      0.56%      7.87% |           0      0.00%      7.87% |          83     46.63%     54.49% |           0      0.00%     54.49% |           3      1.69%     56.18% |          78     43.82%    100.00% (Unspecified)
system.caches.L2Cache_Controller.MT_I.WB_Data::total          178                       (Unspecified)
system.caches.L2Cache_Controller.MCT_I.WB_Data |        2192     15.09%     15.09% |        1866     12.84%     27.93% |        1028      7.08%     35.01% |        1906     13.12%     48.13% |        1304      8.98%     57.10% |        2837     19.53%     76.63% |        1048      7.21%     83.84% |        2347     16.16%    100.00% (Unspecified)
system.caches.L2Cache_Controller.MCT_I.WB_Data::total        14528                       (Unspecified)
system.caches.L2Cache_Controller.MCT_I.Ack_all |        1771     19.61%     19.61% |        1274     14.11%     33.72% |         758      8.39%     42.12% |         979     10.84%     52.96% |        1335     14.78%     67.74% |         814      9.01%     76.76% |        1452     16.08%     92.83% |         647      7.17%    100.00% (Unspecified)
system.caches.L2Cache_Controller.MCT_I.Ack_all::total         9030                       (Unspecified)
system.caches.L2Cache_Controller.I_I.Ack |        2785     13.50%     13.50% |        2792     13.53%     27.03% |        1796      8.70%     35.74% |        2651     12.85%     48.58% |        2326     11.27%     59.86% |        3012     14.60%     74.46% |        3171     15.37%     89.83% |        2099     10.17%    100.00% (Unspecified)
system.caches.L2Cache_Controller.I_I.Ack::total        20632                       (Unspecified)
system.caches.L2Cache_Controller.I_I.Ack_all |         761     13.43%     13.43% |         700     12.35%     25.78% |         511      9.02%     34.79% |         763     13.46%     48.25% |         649     11.45%     59.70% |         780     13.76%     73.47% |         834     14.71%     88.18% |         670     11.82%    100.00% (Unspecified)
system.caches.L2Cache_Controller.I_I.Ack_all::total         5668                       (Unspecified)
system.caches.L2Cache_Controller.S_I.Ack |         401     47.62%     47.62% |           0      0.00%     47.62% |          52      6.18%     53.80% |           0      0.00%     53.80% |         103     12.23%     66.03% |           0      0.00%     66.03% |         248     29.45%     95.49% |          38      4.51%    100.00% (Unspecified)
system.caches.L2Cache_Controller.S_I.Ack::total          842                       (Unspecified)
system.caches.L2Cache_Controller.S_I.Ack_all |          89     37.39%     37.39% |           0      0.00%     37.39% |          13      5.46%     42.86% |           0      0.00%     42.86% |          33     13.87%     56.72% |           0      0.00%     56.72% |          91     38.24%     94.96% |          12      5.04%    100.00% (Unspecified)
system.caches.L2Cache_Controller.S_I.Ack_all::total          238                       (Unspecified)
system.caches.L2Cache_Controller.ISS.L1_GETS |          54     22.69%     22.69% |          29     12.18%     34.87% |          16      6.72%     41.60% |          20      8.40%     50.00% |          23      9.66%     59.66% |          33     13.87%     73.53% |          44     18.49%     92.02% |          19      7.98%    100.00% (Unspecified)
system.caches.L2Cache_Controller.ISS.L1_GETS::total          238                       (Unspecified)
system.caches.L2Cache_Controller.ISS.Mem_Data |      178272     12.59%     12.59% |      177091     12.51%     25.10% |      176123     12.44%     37.53% |      176743     12.48%     50.02% |      176839     12.49%     62.50% |      177028     12.50%     75.01% |      176813     12.49%     87.49% |      177122     12.51%    100.00% (Unspecified)
system.caches.L2Cache_Controller.ISS.Mem_Data::total      1416031                       (Unspecified)
system.caches.L2Cache_Controller.IS.L1_GET_INSTR |         128     12.01%     12.01% |         162     15.20%     27.20% |         113     10.60%     37.80% |         116     10.88%     48.69% |         157     14.73%     63.41% |         139     13.04%     76.45% |         111     10.41%     86.87% |         140     13.13%    100.00% (Unspecified)
system.caches.L2Cache_Controller.IS.L1_GET_INSTR::total         1066                       (Unspecified)
system.caches.L2Cache_Controller.IS.L1_GETS |          33     23.08%     23.08% |          19     13.29%     36.36% |          17     11.89%     48.25% |          14      9.79%     58.04% |          14      9.79%     67.83% |           9      6.29%     74.13% |          29     20.28%     94.41% |           8      5.59%    100.00% (Unspecified)
system.caches.L2Cache_Controller.IS.L1_GETS::total          143                       (Unspecified)
system.caches.L2Cache_Controller.IS.Mem_Data |         739     13.23%     13.23% |         715     12.80%     26.03% |         543      9.72%     35.76% |         755     13.52%     49.27% |         610     10.92%     60.20% |         717     12.84%     73.03% |         807     14.45%     87.48% |         699     12.52%    100.00% (Unspecified)
system.caches.L2Cache_Controller.IS.Mem_Data::total         5585                       (Unspecified)
system.caches.L2Cache_Controller.IM.Mem_Data |        1739     19.71%     19.71% |        1381     15.65%     35.35% |         278      3.15%     38.50% |         845      9.58%     48.08% |         866      9.81%     57.89% |        1980     22.44%     80.33% |         510      5.78%     86.11% |        1226     13.89%    100.00% (Unspecified)
system.caches.L2Cache_Controller.IM.Mem_Data::total         8825                       (Unspecified)
system.caches.L2Cache_Controller.SS_MB.L1_GETS |           1      9.09%      9.09% |           0      0.00%      9.09% |           0      0.00%      9.09% |           0      0.00%      9.09% |           0      0.00%      9.09% |           0      0.00%      9.09% |          10     90.91%    100.00% |           0      0.00%    100.00% (Unspecified)
system.caches.L2Cache_Controller.SS_MB.L1_GETS::total           11                       (Unspecified)
system.caches.L2Cache_Controller.SS_MB.Exclusive_Unblock |         435     31.27%     31.27% |         190     13.66%     44.93% |          26      1.87%     46.80% |           2      0.14%     46.94% |         211     15.17%     62.11% |           2      0.14%     62.26% |         314     22.57%     84.83% |         211     15.17%    100.00% (Unspecified)
system.caches.L2Cache_Controller.SS_MB.Exclusive_Unblock::total         1391                       (Unspecified)
system.caches.L2Cache_Controller.MT_MB.L1_GETS |          12     25.00%     25.00% |           0      0.00%     25.00% |           0      0.00%     25.00% |           0      0.00%     25.00% |          12     25.00%     50.00% |           0      0.00%     50.00% |          12     25.00%     75.00% |          12     25.00%    100.00% (Unspecified)
system.caches.L2Cache_Controller.MT_MB.L1_GETS::total           48                       (Unspecified)
system.caches.L2Cache_Controller.MT_MB.Exclusive_Unblock |      484967     12.56%     12.56% |      483315     12.52%     25.08% |      480662     12.45%     37.52% |      482002     12.48%     50.01% |      481839     12.48%     62.49% |      483717     12.53%     75.01% |      481476     12.47%     87.48% |      483328     12.52%    100.00% (Unspecified)
system.caches.L2Cache_Controller.MT_MB.Exclusive_Unblock::total      3861306                       (Unspecified)
system.caches.L2Cache_Controller.MT_IIB.L1_GET_INSTR |           0      0.00%      0.00% |           1      9.09%      9.09% |           0      0.00%      9.09% |           2     18.18%     27.27% |           2     18.18%     45.45% |           2     18.18%     63.64% |           1      9.09%     72.73% |           3     27.27%    100.00% (Unspecified)
system.caches.L2Cache_Controller.MT_IIB.L1_GET_INSTR::total           11                       (Unspecified)
system.caches.L2Cache_Controller.MT_IIB.L1_GETS |          76     25.00%     25.00% |           0      0.00%     25.00% |           1      0.33%     25.33% |           0      0.00%     25.33% |          88     28.95%     54.28% |           4      1.32%     55.59% |          42     13.82%     69.41% |          93     30.59%    100.00% (Unspecified)
system.caches.L2Cache_Controller.MT_IIB.L1_GETS::total          304                       (Unspecified)
system.caches.L2Cache_Controller.MT_IIB.WB_Data |         481     33.71%     33.71% |         190     13.31%     47.02% |          19      1.33%     48.35% |           2      0.14%     48.49% |         219     15.35%     63.84% |           2      0.14%     63.98% |         306     21.44%     85.42% |         208     14.58%    100.00% (Unspecified)
system.caches.L2Cache_Controller.MT_IIB.WB_Data::total         1427                       (Unspecified)
system.caches.L2Cache_Controller.MT_IIB.WB_Data_clean |         111     18.56%     18.56% |          34      5.69%     24.25% |          28      4.68%     28.93% |          39      6.52%     35.45% |          95     15.89%     51.34% |         103     17.22%     68.56% |         153     25.59%     94.15% |          35      5.85%    100.00% (Unspecified)
system.caches.L2Cache_Controller.MT_IIB.WB_Data_clean::total          598                       (Unspecified)
system.caches.L2Cache_Controller.MT_IIB.Unblock |           1     16.67%     16.67% |           0      0.00%     16.67% |           0      0.00%     16.67% |           0      0.00%     16.67% |           2     33.33%     50.00% |           0      0.00%     50.00% |           2     33.33%     83.33% |           1     16.67%    100.00% (Unspecified)
system.caches.L2Cache_Controller.MT_IIB.Unblock::total            6                       (Unspecified)
system.caches.L2Cache_Controller.MT_IB.WB_Data |           1     33.33%     33.33% |           0      0.00%     33.33% |           0      0.00%     33.33% |           0      0.00%     33.33% |           1     33.33%     66.67% |           0      0.00%     66.67% |           0      0.00%     66.67% |           1     33.33%    100.00% (Unspecified)
system.caches.L2Cache_Controller.MT_IB.WB_Data::total            3                       (Unspecified)
system.caches.L2Cache_Controller.MT_IB.WB_Data_clean |           0      0.00%      0.00% |           0      0.00%      0.00% |           0      0.00%      0.00% |           0      0.00%      0.00% |           1     33.33%     33.33% |           0      0.00%     33.33% |           2     66.67%    100.00% |           0      0.00%    100.00% (Unspecified)
system.caches.L2Cache_Controller.MT_IB.WB_Data_clean::total            3                       (Unspecified)
system.caches.L2Cache_Controller.MT_SB.L1_GET_INSTR |           1     20.00%     20.00% |           1     20.00%     40.00% |           1     20.00%     60.00% |           1     20.00%     80.00% |           0      0.00%     80.00% |           0      0.00%     80.00% |           1     20.00%    100.00% |           0      0.00%    100.00% (Unspecified)
system.caches.L2Cache_Controller.MT_SB.L1_GET_INSTR::total            5                       (Unspecified)
system.caches.L2Cache_Controller.MT_SB.L1_GETS |          10      5.85%      5.85% |           0      0.00%      5.85% |           0      0.00%      5.85% |           0      0.00%      5.85% |          78     45.61%     51.46% |           0      0.00%     51.46% |          70     40.94%     92.40% |          13      7.60%    100.00% (Unspecified)
system.caches.L2Cache_Controller.MT_SB.L1_GETS::total          171                       (Unspecified)
system.caches.L2Cache_Controller.MT_SB.L1_UPGRADE |           2     33.33%     33.33% |           0      0.00%     33.33% |           0      0.00%     33.33% |           0      0.00%     33.33% |           0      0.00%     33.33% |           0      0.00%     33.33% |           4     66.67%    100.00% |           0      0.00%    100.00% (Unspecified)
system.caches.L2Cache_Controller.MT_SB.L1_UPGRADE::total            6                       (Unspecified)
system.caches.L2Cache_Controller.MT_SB.Unblock |         592     29.23%     29.23% |         224     11.06%     40.30% |          47      2.32%     42.62% |          41      2.02%     44.64% |         314     15.51%     60.15% |         105      5.19%     65.33% |         459     22.67%     88.00% |         243     12.00%    100.00% (Unspecified)
system.caches.L2Cache_Controller.MT_SB.Unblock::total         2025                       (Unspecified)
system.caches.RequestType.LD.latency_hist_seqr::bucket_size          512                       (Unspecified)
system.caches.RequestType.LD.latency_hist_seqr::max_bucket         5119                       (Unspecified)
system.caches.RequestType.LD.latency_hist_seqr::samples    156495058                       (Unspecified)
system.caches.RequestType.LD.latency_hist_seqr::mean     6.759326                       (Unspecified)
system.caches.RequestType.LD.latency_hist_seqr::gmean     1.105913                       (Unspecified)
system.caches.RequestType.LD.latency_hist_seqr::stdev    66.684643                       (Unspecified)
system.caches.RequestType.LD.latency_hist_seqr |   155834395     99.58%     99.58% |      490713      0.31%     99.89% |      139404      0.09%     99.98% |       22925      0.01%    100.00% |        4078      0.00%    100.00% |        3003      0.00%    100.00% |         424      0.00%    100.00% |          85      0.00%    100.00% |          23      0.00%    100.00% |           8      0.00%    100.00% (Unspecified)
system.caches.RequestType.LD.latency_hist_seqr::total    156495058                       (Unspecified)
system.caches.RequestType.LD.hit_latency_hist_seqr::bucket_size            1                       (Unspecified)
system.caches.RequestType.LD.hit_latency_hist_seqr::max_bucket            9                       (Unspecified)
system.caches.RequestType.LD.hit_latency_hist_seqr::samples    152626375                       (Unspecified)
system.caches.RequestType.LD.hit_latency_hist_seqr::mean     1.000056                       (Unspecified)
system.caches.RequestType.LD.hit_latency_hist_seqr::gmean     1.000039                       (Unspecified)
system.caches.RequestType.LD.hit_latency_hist_seqr::stdev     0.007484                       (Unspecified)
system.caches.RequestType.LD.hit_latency_hist_seqr |           0      0.00%      0.00% |   152617827     99.99%     99.99% |        8548      0.01%    100.00% |           0      0.00%    100.00% |           0      0.00%    100.00% |           0      0.00%    100.00% |           0      0.00%    100.00% |           0      0.00%    100.00% |           0      0.00%    100.00% |           0      0.00%    100.00% (Unspecified)
system.caches.RequestType.LD.hit_latency_hist_seqr::total    152626375                       (Unspecified)
system.caches.RequestType.LD.miss_latency_hist_seqr::bucket_size          512                       (Unspecified)
system.caches.RequestType.LD.miss_latency_hist_seqr::max_bucket         5119                       (Unspecified)
system.caches.RequestType.LD.miss_latency_hist_seqr::samples      3868683                       (Unspecified)
system.caches.RequestType.LD.miss_latency_hist_seqr::mean   233.972700                       (Unspecified)
system.caches.RequestType.LD.miss_latency_hist_seqr::gmean    58.604298                       (Unspecified)
system.caches.RequestType.LD.miss_latency_hist_seqr::stdev   356.297801                       (Unspecified)
system.caches.RequestType.LD.miss_latency_hist_seqr |     3208020     82.92%     82.92% |      490713     12.68%     95.61% |      139404      3.60%     99.21% |       22925      0.59%     99.80% |        4078      0.11%     99.91% |        3003      0.08%     99.99% |         424      0.01%    100.00% |          85      0.00%    100.00% |          23      0.00%    100.00% |           8      0.00%    100.00% (Unspecified)
system.caches.RequestType.LD.miss_latency_hist_seqr::total      3868683                       (Unspecified)
system.caches.RequestType.ST.latency_hist_seqr::bucket_size          512                       (Unspecified)
system.caches.RequestType.ST.latency_hist_seqr::max_bucket         5119                       (Unspecified)
system.caches.RequestType.ST.latency_hist_seqr::samples     35091470                       (Unspecified)
system.caches.RequestType.ST.latency_hist_seqr::mean     1.184427                       (Unspecified)
system.caches.RequestType.ST.latency_hist_seqr::gmean     1.063264                       (Unspecified)
system.caches.RequestType.ST.latency_hist_seqr::stdev     9.804487                       (Unspecified)
system.caches.RequestType.ST.latency_hist_seqr |    35088908     99.99%     99.99% |        1620      0.00%    100.00% |         673      0.00%    100.00% |         166      0.00%    100.00% |          73      0.00%    100.00% |          23      0.00%    100.00% |           4      0.00%    100.00% |           3      0.00%    100.00% |           0      0.00%    100.00% |           0      0.00%    100.00% (Unspecified)
system.caches.RequestType.ST.latency_hist_seqr::total     35091470                       (Unspecified)
system.caches.RequestType.ST.hit_latency_hist_seqr::bucket_size          256                       (Unspecified)
system.caches.RequestType.ST.hit_latency_hist_seqr::max_bucket         2559                       (Unspecified)
system.caches.RequestType.ST.hit_latency_hist_seqr::samples     35080991                       (Unspecified)
system.caches.RequestType.ST.hit_latency_hist_seqr::mean     1.086800                       (Unspecified)
system.caches.RequestType.ST.hit_latency_hist_seqr::gmean     1.061863                       (Unspecified)
system.caches.RequestType.ST.hit_latency_hist_seqr::stdev     0.599417                       (Unspecified)
system.caches.RequestType.ST.hit_latency_hist_seqr |    35080985    100.00%    100.00% |           1      0.00%    100.00% |           1      0.00%    100.00% |           0      0.00%    100.00% |           3      0.00%    100.00% |           0      0.00%    100.00% |           0      0.00%    100.00% |           0      0.00%    100.00% |           0      0.00%    100.00% |           1      0.00%    100.00% (Unspecified)
system.caches.RequestType.ST.hit_latency_hist_seqr::total     35080991                       (Unspecified)
system.caches.RequestType.ST.miss_latency_hist_seqr::bucket_size          512                       (Unspecified)
system.caches.RequestType.ST.miss_latency_hist_seqr::max_bucket         5119                       (Unspecified)
system.caches.RequestType.ST.miss_latency_hist_seqr::samples        10479                       (Unspecified)
system.caches.RequestType.ST.miss_latency_hist_seqr::mean   328.014219                       (Unspecified)
system.caches.RequestType.ST.miss_latency_hist_seqr::gmean    87.750995                       (Unspecified)
system.caches.RequestType.ST.miss_latency_hist_seqr::stdev   462.467007                       (Unspecified)
system.caches.RequestType.ST.miss_latency_hist_seqr |        7922     75.60%     75.60% |        1619     15.45%     91.05% |         670      6.39%     97.44% |         166      1.58%     99.03% |          72      0.69%     99.71% |          23      0.22%     99.93% |           4      0.04%     99.97% |           3      0.03%    100.00% |           0      0.00%    100.00% |           0      0.00%    100.00% (Unspecified)
system.caches.RequestType.ST.miss_latency_hist_seqr::total        10479                       (Unspecified)
system.caches.RequestType.IFETCH.latency_hist_seqr::bucket_size          512                       (Unspecified)
system.caches.RequestType.IFETCH.latency_hist_seqr::max_bucket         5119                       (Unspecified)
system.caches.RequestType.IFETCH.latency_hist_seqr::samples    113417437                       (Unspecified)
system.caches.RequestType.IFETCH.latency_hist_seqr::mean     1.027978                       (Unspecified)
system.caches.RequestType.IFETCH.latency_hist_seqr::gmean     1.002810                       (Unspecified)
system.caches.RequestType.IFETCH.latency_hist_seqr::stdev     2.558994                       (Unspecified)
system.caches.RequestType.IFETCH.latency_hist_seqr |   113417196    100.00%    100.00% |         127      0.00%    100.00% |          93      0.00%    100.00% |          20      0.00%    100.00% |           0      0.00%    100.00% |           1      0.00%    100.00% |           0      0.00%    100.00% |           0      0.00%    100.00% |           0      0.00%    100.00% |           0      0.00%    100.00% (Unspecified)
system.caches.RequestType.IFETCH.latency_hist_seqr::total    113417437                       (Unspecified)
system.caches.RequestType.IFETCH.hit_latency_hist_seqr::bucket_size            1                       (Unspecified)
system.caches.RequestType.IFETCH.hit_latency_hist_seqr::max_bucket            9                       (Unspecified)
system.caches.RequestType.IFETCH.hit_latency_hist_seqr::samples    113301099                       (Unspecified)
system.caches.RequestType.IFETCH.hit_latency_hist_seqr::mean            1                       (Unspecified)
system.caches.RequestType.IFETCH.hit_latency_hist_seqr::gmean            1                       (Unspecified)
system.caches.RequestType.IFETCH.hit_latency_hist_seqr |           0      0.00%      0.00% |   113301099    100.00%    100.00% |           0      0.00%    100.00% |           0      0.00%    100.00% |           0      0.00%    100.00% |           0      0.00%    100.00% |           0      0.00%    100.00% |           0      0.00%    100.00% |           0      0.00%    100.00% |           0      0.00%    100.00% (Unspecified)
system.caches.RequestType.IFETCH.hit_latency_hist_seqr::total    113301099                       (Unspecified)
system.caches.RequestType.IFETCH.miss_latency_hist_seqr::bucket_size          512                       (Unspecified)
system.caches.RequestType.IFETCH.miss_latency_hist_seqr::max_bucket         5119                       (Unspecified)
system.caches.RequestType.IFETCH.miss_latency_hist_seqr::samples       116338                       (Unspecified)
system.caches.RequestType.IFETCH.miss_latency_hist_seqr::mean    28.275293                       (Unspecified)
system.caches.RequestType.IFETCH.miss_latency_hist_seqr::gmean    15.420083                       (Unspecified)
system.caches.RequestType.IFETCH.miss_latency_hist_seqr::stdev    75.106094                       (Unspecified)
system.caches.RequestType.IFETCH.miss_latency_hist_seqr |      116097     99.79%     99.79% |         127      0.11%     99.90% |          93      0.08%     99.98% |          20      0.02%    100.00% |           0      0.00%    100.00% |           1      0.00%    100.00% |           0      0.00%    100.00% |           0      0.00%    100.00% |           0      0.00%    100.00% |           0      0.00%    100.00% (Unspecified)
system.caches.RequestType.IFETCH.miss_latency_hist_seqr::total       116338                       (Unspecified)
system.caches.RequestType.RMW_Read.latency_hist_seqr::bucket_size          512                       (Unspecified)
system.caches.RequestType.RMW_Read.latency_hist_seqr::max_bucket         5119                       (Unspecified)
system.caches.RequestType.RMW_Read.latency_hist_seqr::samples        45541                       (Unspecified)
system.caches.RequestType.RMW_Read.latency_hist_seqr::mean    42.102984                       (Unspecified)
system.caches.RequestType.RMW_Read.latency_hist_seqr::gmean     2.031356                       (Unspecified)
system.caches.RequestType.RMW_Read.latency_hist_seqr::stdev   183.000922                       (Unspecified)
system.caches.RequestType.RMW_Read.latency_hist_seqr |       44064     96.76%     96.76% |        1044      2.29%     99.05% |         336      0.74%     99.79% |          67      0.15%     99.93% |          20      0.04%     99.98% |           8      0.02%    100.00% |           2      0.00%    100.00% |           0      0.00%    100.00% |           0      0.00%    100.00% |           0      0.00%    100.00% (Unspecified)
system.caches.RequestType.RMW_Read.latency_hist_seqr::total        45541                       (Unspecified)
system.caches.RequestType.RMW_Read.hit_latency_hist_seqr::bucket_size          256                       (Unspecified)
system.caches.RequestType.RMW_Read.hit_latency_hist_seqr::max_bucket         2559                       (Unspecified)
system.caches.RequestType.RMW_Read.hit_latency_hist_seqr::samples        40065                       (Unspecified)
system.caches.RequestType.RMW_Read.hit_latency_hist_seqr::mean     1.567428                       (Unspecified)
system.caches.RequestType.RMW_Read.hit_latency_hist_seqr::gmean     1.180803                       (Unspecified)
system.caches.RequestType.RMW_Read.hit_latency_hist_seqr::stdev    14.952653                       (Unspecified)
system.caches.RequestType.RMW_Read.hit_latency_hist_seqr |       40054     99.97%     99.97% |           5      0.01%     99.99% |           1      0.00%     99.99% |           0      0.00%     99.99% |           4      0.01%    100.00% |           1      0.00%    100.00% |           0      0.00%    100.00% |           0      0.00%    100.00% |           0      0.00%    100.00% |           0      0.00%    100.00% (Unspecified)
system.caches.RequestType.RMW_Read.hit_latency_hist_seqr::total        40065                       (Unspecified)
system.caches.RequestType.RMW_Read.miss_latency_hist_seqr::bucket_size          512                       (Unspecified)
system.caches.RequestType.RMW_Read.miss_latency_hist_seqr::max_bucket         5119                       (Unspecified)
system.caches.RequestType.RMW_Read.miss_latency_hist_seqr::samples         5476                       (Unspecified)
system.caches.RequestType.RMW_Read.miss_latency_hist_seqr::mean   338.680241                       (Unspecified)
system.caches.RequestType.RMW_Read.miss_latency_hist_seqr::gmean   107.549563                       (Unspecified)
system.caches.RequestType.RMW_Read.miss_latency_hist_seqr::stdev   420.622804                       (Unspecified)
system.caches.RequestType.RMW_Read.miss_latency_hist_seqr |        4005     73.14%     73.14% |        1043     19.05%     92.18% |         331      6.04%     98.23% |          67      1.22%     99.45% |          20      0.37%     99.82% |           8      0.15%     99.96% |           2      0.04%    100.00% |           0      0.00%    100.00% |           0      0.00%    100.00% |           0      0.00%    100.00% (Unspecified)
[...]
system.o3Cpu7.iew.idleCycles                        0                       # Number of cycles IEW is idle (Cycle)
system.o3Cpu7.iew.squashCycles               18358418                       # Number of cycles IEW is squashing (Cycle)
system.o3Cpu7.iew.blockCycles               235449397                       # Number of cycles IEW is blocking (Cycle)
system.o3Cpu7.iew.unblockCycles               2607920                       # Number of cycles IEW is unblocking (Cycle)
system.o3Cpu7.iew.dispatchedInsts          1130210203                       # Number of instructions dispatched to IQ (Count)
system.o3Cpu7.iew.dispSquashedInsts            513980                       # Number of squashed instructions skipped by dispatch (Count)
system.o3Cpu7.iew.dispLoadInsts             193147656                       # Number of dispatched load instructions (Count)
system.o3Cpu7.iew.dispStoreInsts             59103200                       # Number of dispatched store instructions (Count)
system.o3Cpu7.iew.dispNonSpecInsts               7429                       # Number of dispatched non-speculative instructions (Count)
system.o3Cpu7.iew.iqFullEvents                 289586                       # Number of times the IQ has become full, causing a stall (Count)
system.o3Cpu7.iew.lsqFullEvents               1928473                       # Number of times the LSQ has become full, causing a stall (Count)
system.o3Cpu7.iew.memOrderViolationEvents         2950                       # Number of memory order violations (Count)
system.o3Cpu7.iew.predictedTakenIncorrect      9688798                       # Number of branches that were predicted taken incorrectly (Count)
system.o3Cpu7.iew.predictedNotTakenIncorrect     10203684                       # Number of branches that were predicted not taken incorrectly (Count)
system.o3Cpu7.iew.branchMispredicts          19892482                       # Number of branch mispredicts detected at execute (Count)
system.o3Cpu7.iew.instsToCommit             988660944                       # Cumulative count of insts sent to commit (Count)
system.o3Cpu7.iew.writebackCount            976387140                       # Cumulative count of insts written-back (Count)
system.o3Cpu7.iew.producerInst              719322208                       # Number of instructions producing a value (Count)
system.o3Cpu7.iew.consumerInst              958498402                       # Number of instructions consuming a value (Count)
system.o3Cpu7.iew.wbRate                     1.046872                       # Insts written-back per cycle ((Count/Cycle))
system.o3Cpu7.iew.wbFanout                   0.750468                       # Average fanout of values written-back ((Count/Count))
system.o3Cpu7.interrupts.clk_domain.clock         3200                       # Clock period in ticks (Tick)
system.o3Cpu7.lsq0.forwLoads                   744907                       # Number of loads that had data forwarded from stores (Count)
system.o3Cpu7.lsq0.squashedLoads             66217581                       # Number of loads squashed (Count)
system.o3Cpu7.lsq0.ignoredResponses               107                       # Number of memory responses ignored because the instruction is squashed (Count)
system.o3Cpu7.lsq0.memOrderViolation             2950                       # Number of memory ordering violations (Count)
system.o3Cpu7.lsq0.squashedStores            24445123                       # Number of stores squashed (Count)
system.o3Cpu7.lsq0.rescheduledLoads                55                       # Number of loads that were rescheduled (Count)
system.o3Cpu7.lsq0.blockedByCache               94635                       # Number of times an access to memory failed due to the cache being blocked (Count)
system.o3Cpu7.lsq0.loadToUse::samples       126930072                       # Distribution of cycle latency between the first time a load is issued and its completion (Unspecified)
system.o3Cpu7.lsq0.loadToUse::mean          10.722245                       # Distribution of cycle latency between the first time a load is issued and its completion (Unspecified)
system.o3Cpu7.lsq0.loadToUse::stdev         69.033061                       # Distribution of cycle latency between the first time a load is issued and its completion (Unspecified)
system.o3Cpu7.lsq0.loadToUse::0-9           121121341     95.42%     95.42% # Distribution of cycle latency between the first time a load is issued and its completion (Unspecified)
system.o3Cpu7.lsq0.loadToUse::10-19           3530594      2.78%     98.21% # Distribution of cycle latency between the first time a load is issued and its completion (Unspecified)
system.o3Cpu7.lsq0.loadToUse::20-29             52711      0.04%     98.25% # Distribution of cycle latency between the first time a load is issued and its completion (Unspecified)
system.o3Cpu7.lsq0.loadToUse::30-39             13723      0.01%     98.26% # Distribution of cycle latency between the first time a load is issued and its completion (Unspecified)
system.o3Cpu7.lsq0.loadToUse::40-49             11319      0.01%     98.27% # Distribution of cycle latency between the first time a load is issued and its completion (Unspecified)
system.o3Cpu7.lsq0.loadToUse::50-59              8073      0.01%     98.27% # Distribution of cycle latency between the first time a load is issued and its completion (Unspecified)
system.o3Cpu7.lsq0.loadToUse::60-69              8289      0.01%     98.28% # Distribution of cycle latency between the first time a load is issued and its completion (Unspecified)
system.o3Cpu7.lsq0.loadToUse::70-79              7528      0.01%     98.29% # Distribution of cycle latency between the first time a load is issued and its completion (Unspecified)
system.o3Cpu7.lsq0.loadToUse::80-89              7702      0.01%     98.29% # Distribution of cycle latency between the first time a load is issued and its completion (Unspecified)
system.o3Cpu7.lsq0.loadToUse::90-99              8864      0.01%     98.30% # Distribution of cycle latency between the first time a load is issued and its completion (Unspecified)
system.o3Cpu7.lsq0.loadToUse::100-109            8830      0.01%     98.31% # Distribution of cycle latency between the first time a load is issued and its completion (Unspecified)
system.o3Cpu7.lsq0.loadToUse::110-119            9260      0.01%     98.31% # Distribution of cycle latency between the first time a load is issued and its completion (Unspecified)
system.o3Cpu7.lsq0.loadToUse::120-129           10539      0.01%     98.32% # Distribution of cycle latency between the first time a load is issued and its completion (Unspecified)
system.o3Cpu7.lsq0.loadToUse::130-139           12450      0.01%     98.33% # Distribution of cycle latency between the first time a load is issued and its completion (Unspecified)
system.o3Cpu7.lsq0.loadToUse::140-149           14484      0.01%     98.34% # Distribution of cycle latency between the first time a load is issued and its completion (Unspecified)
system.o3Cpu7.lsq0.loadToUse::150-159           17463      0.01%     98.36% # Distribution of cycle latency between the first time a load is issued and its completion (Unspecified)
system.o3Cpu7.lsq0.loadToUse::160-169           21521      0.02%     98.37% # Distribution of cycle latency between the first time a load is issued and its completion (Unspecified)
system.o3Cpu7.lsq0.loadToUse::170-179           26663      0.02%     98.39% # Distribution of cycle latency between the first time a load is issued and its completion (Unspecified)
system.o3Cpu7.lsq0.loadToUse::180-189           34393      0.03%     98.42% # Distribution of cycle latency between the first time a load is issued and its completion (Unspecified)
system.o3Cpu7.lsq0.loadToUse::190-199           40574      0.03%     98.45% # Distribution of cycle latency between the first time a load is issued and its completion (Unspecified)
system.o3Cpu7.lsq0.loadToUse::200-209           51900      0.04%     98.49% # Distribution of cycle latency between the first time a load is issued and its completion (Unspecified)
system.o3Cpu7.lsq0.loadToUse::210-219           57436      0.05%     98.54% # Distribution of cycle latency between the first time a load is issued and its completion (Unspecified)
system.o3Cpu7.lsq0.loadToUse::220-229           66978      0.05%     98.59% # Distribution of cycle latency between the first time a load is issued and its completion (Unspecified)
system.o3Cpu7.lsq0.loadToUse::230-239           79424      0.06%     98.65% # Distribution of cycle latency between the first time a load is issued and its completion (Unspecified)
system.o3Cpu7.lsq0.loadToUse::240-249           72747      0.06%     98.71% # Distribution of cycle latency between the first time a load is issued and its completion (Unspecified)
system.o3Cpu7.lsq0.loadToUse::250-259           82145      0.06%     98.78% # Distribution of cycle latency between the first time a load is issued and its completion (Unspecified)
system.o3Cpu7.lsq0.loadToUse::260-269           91836      0.07%     98.85% # Distribution of cycle latency between the first time a load is issued and its completion (Unspecified)
system.o3Cpu7.lsq0.loadToUse::270-279           43827      0.03%     98.88% # Distribution of cycle latency between the first time a load is issued and its completion (Unspecified)
system.o3Cpu7.lsq0.loadToUse::280-289           30549      0.02%     98.91% # Distribution of cycle latency between the first time a load is issued and its completion (Unspecified)
system.o3Cpu7.lsq0.loadToUse::290-299           34442      0.03%     98.93% # Distribution of cycle latency between the first time a load is issued and its completion (Unspecified)
system.o3Cpu7.lsq0.loadToUse::overflows       1352467      1.07%    100.00% # Distribution of cycle latency between the first time a load is issued and its completion (Unspecified)
system.o3Cpu7.lsq0.loadToUse::min_value             2                       # Distribution of cycle latency between the first time a load is issued and its completion (Unspecified)
system.o3Cpu7.lsq0.loadToUse::max_value          5009                       # Distribution of cycle latency between the first time a load is issued and its completion (Unspecified)
system.o3Cpu7.lsq0.loadToUse::total         126930072                       # Distribution of cycle latency between the first time a load is issued and its completion (Unspecified)
system.o3Cpu7.mmu.dtb.rdAccesses            173297005                       # TLB accesses on read requests (Count)
system.o3Cpu7.mmu.dtb.wrAccesses             46195452                       # TLB accesses on write requests (Count)
system.o3Cpu7.mmu.dtb.rdMisses                  13151                       # TLB misses on read requests (Count)
system.o3Cpu7.mmu.dtb.wrMisses                   5140                       # TLB misses on write requests (Count)
system.o3Cpu7.mmu.dtb.walker.power_state.pwrStateResidencyTicks::UNDEFINED 187547765400                       # Cumulative time (in ticks) in various power states (Tick)
system.o3Cpu7.mmu.itb.rdAccesses                    0                       # TLB accesses on read requests (Count)
system.o3Cpu7.mmu.itb.wrAccesses            112801929                       # TLB accesses on write requests (Count)
system.o3Cpu7.mmu.itb.rdMisses                      0                       # TLB misses on read requests (Count)
system.o3Cpu7.mmu.itb.wrMisses                    255                       # TLB misses on write requests (Count)
system.o3Cpu7.mmu.itb.walker.power_state.pwrStateResidencyTicks::UNDEFINED 187547765400                       # Cumulative time (in ticks) in various power states (Tick)
system.o3Cpu7.power_state.pwrStateResidencyTicks::OFF 187547765400                       # Cumulative time (in ticks) in various power states (Tick)
system.o3Cpu7.rename.squashCycles            18358418                       # Number of cycles rename is squashing (Cycle)
system.o3Cpu7.rename.idleCycles             127317614                       # Number of cycles rename is idle (Cycle)
system.o3Cpu7.rename.blockCycles            437782278                       # Number of cycles rename is blocking (Cycle)
system.o3Cpu7.rename.serializeStallCycles       217141                       # count of cycles rename stalled for serializing inst (Cycle)
system.o3Cpu7.rename.runCycles              320983519                       # Number of cycles rename is running (Cycle)
system.o3Cpu7.rename.unblockCycles           21043364                       # Number of cycles rename is unblocking (Cycle)
system.o3Cpu7.rename.renamedInsts          1238645496                       # Number of instructions processed by rename (Count)
system.o3Cpu7.rename.ROBFullEvents            3834498                       # Number of times rename has blocked due to ROB full (Count)
system.o3Cpu7.rename.IQFullEvents             7100048                       # Number of times rename has blocked due to IQ full (Count)
system.o3Cpu7.rename.LQFullEvents             7670194                       # Number of times rename has blocked due to LQ full (Count)
system.o3Cpu7.rename.SQFullEvents              109405                       # Number of times rename has blocked due to SQ full (Count)
system.o3Cpu7.rename.renamedOperands       2006454743                       # Number of destination operands rename has renamed (Count)
system.o3Cpu7.rename.lookups               4246012146                       # Number of register rename lookups that rename has made (Count)
system.o3Cpu7.rename.intLookups            1291982433                       # Number of integer rename lookups (Count)
system.o3Cpu7.rename.committedMaps         1174386658                       # Number of HB maps that are committed (Count)
system.o3Cpu7.rename.undoneMaps             832068060                       # Number of HB maps that are undone due to squashing (Count)
system.o3Cpu7.rename.serializing                 7517                       # count of serializing insts renamed (Count)
system.o3Cpu7.rename.tempSerializing             7677                       # count of temporary serializing insts renamed (Count)
system.o3Cpu7.rename.skidInsts               34989960                       # count of insts added to the skid buffer (Count)
system.o3Cpu7.rob.reads                    1838271230                       # The number of ROB reads (Count)
system.o3Cpu7.rob.writes                   2367518575                       # The number of ROB writes (Count)
system.o3Cpu7.thread_0.numInsts             410378526                       # Number of Instructions committed (Count)
system.o3Cpu7.thread_0.numOps               732599013                       # Number of Ops committed (Count)
system.o3Cpu7.thread_0.numMemRefs                   0                       # Number of Memory References (Count)
system.pc.bad_addr.power_state.pwrStateResidencyTicks::UNDEFINED 187547765400                       # Cumulative time (in ticks) in various power states (Tick)
system.pc.com_1.power_state.pwrStateResidencyTicks::UNDEFINED 187547765400                       # Cumulative time (in ticks) in various power states (Tick)
system.pc.default_bus.power_state.pwrStateResidencyTicks::UNDEFINED 187547765400                       # Cumulative time (in ticks) in various power states (Tick)
system.pc.empty_isa.power_state.pwrStateResidencyTicks::UNDEFINED 187547765400                       # Cumulative time (in ticks) in various power states (Tick)
system.pc.fake_com_2.power_state.pwrStateResidencyTicks::UNDEFINED 187547765400                       # Cumulative time (in ticks) in various power states (Tick)
system.pc.fake_com_3.power_state.pwrStateResidencyTicks::UNDEFINED 187547765400                       # Cumulative time (in ticks) in various power states (Tick)
system.pc.fake_com_4.power_state.pwrStateResidencyTicks::UNDEFINED 187547765400                       # Cumulative time (in ticks) in various power states (Tick)
system.pc.fake_floppy.power_state.pwrStateResidencyTicks::UNDEFINED 187547765400                       # Cumulative time (in ticks) in various power states (Tick)
system.pc.pci_host.power_state.pwrStateResidencyTicks::UNDEFINED 187547765400                       # Cumulative time (in ticks) in various power states (Tick)
system.pc.south_bridge.cmos.power_state.pwrStateResidencyTicks::UNDEFINED 187547765400                       # Cumulative time (in ticks) in various power states (Tick)
system.pc.south_bridge.dma1.power_state.pwrStateResidencyTicks::UNDEFINED 187547765400                       # Cumulative time (in ticks) in various power states (Tick)
system.pc.south_bridge.ide.disks0.IdeDisk.dmaReadFullPages            0                       # Number of full page size DMA reads (not PRD). (Count)
system.pc.south_bridge.ide.disks0.IdeDisk.dmaReadBytes            0                       # Number of bytes transfered via DMA reads (not PRD). (Byte)
system.pc.south_bridge.ide.disks0.IdeDisk.dmaReadTxs            0                       # Number of DMA read transactions (not PRD). (Count)
system.pc.south_bridge.ide.disks0.IdeDisk.dmaWriteFullPages            0                       # Number of full page size DMA writes. (Count)
system.pc.south_bridge.ide.disks0.IdeDisk.dmaWriteBytes            0                       # Number of bytes transfered via DMA writes. (Byte)
system.pc.south_bridge.ide.disks0.IdeDisk.dmaWriteTxs            0                       # Number of DMA write transactions. (Count)
system.pc.south_bridge.ide.disks1.IdeDisk.dmaReadFullPages            0                       # Number of full page size DMA reads (not PRD). (Count)
system.pc.south_bridge.ide.disks1.IdeDisk.dmaReadBytes            0                       # Number of bytes transfered via DMA reads (not PRD). (Byte)
system.pc.south_bridge.ide.disks1.IdeDisk.dmaReadTxs            0                       # Number of DMA read transactions (not PRD). (Count)
system.pc.south_bridge.ide.disks1.IdeDisk.dmaWriteFullPages            0                       # Number of full page size DMA writes. (Count)
system.pc.south_bridge.ide.disks1.IdeDisk.dmaWriteBytes            0                       # Number of bytes transfered via DMA writes. (Byte)
system.pc.south_bridge.ide.disks1.IdeDisk.dmaWriteTxs            0                       # Number of DMA write transactions. (Count)
system.pc.south_bridge.ide.power_state.pwrStateResidencyTicks::UNDEFINED 187547765400                       # Cumulative time (in ticks) in various power states (Tick)
system.pc.south_bridge.io_apic.power_state.pwrStateResidencyTicks::UNDEFINED 187547765400                       # Cumulative time (in ticks) in various power states (Tick)
system.pc.south_bridge.keyboard.power_state.pwrStateResidencyTicks::UNDEFINED 187547765400                       # Cumulative time (in ticks) in various power states (Tick)
system.pc.south_bridge.pic1.power_state.pwrStateResidencyTicks::UNDEFINED 187547765400                       # Cumulative time (in ticks) in various power states (Tick)
system.pc.south_bridge.pic2.power_state.pwrStateResidencyTicks::UNDEFINED 187547765400                       # Cumulative time (in ticks) in various power states (Tick)
system.pc.south_bridge.pit.power_state.pwrStateResidencyTicks::UNDEFINED 187547765400                       # Cumulative time (in ticks) in various power states (Tick)
system.pc.south_bridge.speaker.power_state.pwrStateResidencyTicks::UNDEFINED 187547765400                       # Cumulative time (in ticks) in various power states (Tick)
system.workload.inst.arm                            0                       # number of arm instructions executed (Count)
system.workload.inst.quiesce                        0                       # number of quiesce instructions executed (Count)

---------- End Simulation Statistics   ----------
