
---------- Begin Simulation Statistics ----------
simSeconds                                   0.051127                       # Number of seconds simulated (Second)
simTicks                                  51126531300                       # Number of ticks simulated (Tick)
finalTick                                163559128250000                       # Number of ticks from beginning of simulation (restored from checkpoints and never reset) (Tick)
simFreq                                  1000000000000                       # The number of ticks per simulated second ((Tick/Second))
hostSeconds                                   6650.46                       # Real time elapsed on the host (Second)
hostTickRate                                  7687667                       # The number of ticks simulated per host second (ticks/s) ((Tick/Second))
hostMemory                                   19925832                       # Number of bytes of host memory used (Byte)
simInsts                                    294430727                       # Number of instructions simulated (Count)
simOps                                      490004721                       # Number of ops (including micro ops) simulated (Count)
hostInstRate                                    44272                       # Simulator instruction rate (inst/s) ((Count/Second))
hostOpRate                                      73680                       # Simulator op (including micro ops) rate (op/s) ((Count/Second))
system.caches.delayHistogram::bucket_size          512                       # delay histogram for all message (Unspecified)
system.caches.delayHistogram::max_bucket         5119                       # delay histogram for all message (Unspecified)
system.caches.delayHistogram::samples        46974230                       # delay histogram for all message (Unspecified)
system.caches.delayHistogram::mean           0.535376                       # delay histogram for all message (Unspecified)
system.caches.delayHistogram::stdev          2.358238                       # delay histogram for all message (Unspecified)
system.caches.delayHistogram             |    46974208    100.00%    100.00% |           7      0.00%    100.00% |           5      0.00%    100.00% |           6      0.00%    100.00% |           3      0.00%    100.00% |           0      0.00%    100.00% |           1      0.00%    100.00% |           0      0.00%    100.00% |           0      0.00%    100.00% |           0      0.00%    100.00% # delay histogram for all message (Unspecified)
system.caches.delayHistogram::total          46974230                       # delay histogram for all message (Unspecified)
system.caches.m_outstandReqHistSeqr::bucket_size            2                       (Unspecified)
system.caches.m_outstandReqHistSeqr::max_bucket           19                       (Unspecified)
system.caches.m_outstandReqHistSeqr::samples    179617106                       (Unspecified)
system.caches.m_outstandReqHistSeqr::mean     2.401499                       (Unspecified)
system.caches.m_outstandReqHistSeqr::gmean     1.756797                       (Unspecified)
system.caches.m_outstandReqHistSeqr::stdev     2.383866                       (Unspecified)
system.caches.m_outstandReqHistSeqr      |    94692106     52.72%     52.72% |    54195825     30.17%     82.89% |    11344663      6.32%     89.21% |     8168142      4.55%     93.76% |     6465563      3.60%     97.36% |     3246060      1.81%     99.16% |     1390751      0.77%     99.94% |      113675      0.06%    100.00% |         321      0.00%    100.00% |           0      0.00%    100.00% (Unspecified)
system.caches.m_outstandReqHistSeqr::total    179617106                       (Unspecified)
system.caches.m_latencyHistSeqr::bucket_size         1024                       (Unspecified)
system.caches.m_latencyHistSeqr::max_bucket        10239                       (Unspecified)
system.caches.m_latencyHistSeqr::samples    180313266                       (Unspecified)
system.caches.m_latencyHistSeqr::mean       21.942741                       (Unspecified)
system.caches.m_latencyHistSeqr::gmean       1.265622                       (Unspecified)
system.caches.m_latencyHistSeqr::stdev     123.269430                       (Unspecified)
system.caches.m_latencyHistSeqr          |   180002823     99.83%     99.83% |      217670      0.12%     99.95% |       90560      0.05%    100.00% |        2185      0.00%    100.00% |          27      0.00%    100.00% |           1      0.00%    100.00% |           0      0.00%    100.00% |           0      0.00%    100.00% |           0      0.00%    100.00% |           0      0.00%    100.00% (Unspecified)
system.caches.m_latencyHistSeqr::total      180313266                       (Unspecified)
system.caches.m_hitLatencyHistSeqr::bucket_size          512                       (Unspecified)
system.caches.m_hitLatencyHistSeqr::max_bucket         5119                       (Unspecified)
system.caches.m_hitLatencyHistSeqr::samples    173529687                       (Unspecified)
system.caches.m_hitLatencyHistSeqr::mean     1.006659                       (Unspecified)
system.caches.m_hitLatencyHistSeqr::gmean     1.003397                       (Unspecified)
system.caches.m_hitLatencyHistSeqr::stdev     1.315354                       (Unspecified)
system.caches.m_hitLatencyHistSeqr       |   173529492    100.00%    100.00% |         150      0.00%    100.00% |          20      0.00%    100.00% |           7      0.00%    100.00% |           9      0.00%    100.00% |           7      0.00%    100.00% |           1      0.00%    100.00% |           1      0.00%    100.00% |           0      0.00%    100.00% |           0      0.00%    100.00% (Unspecified)
system.caches.m_hitLatencyHistSeqr::total    173529687                       (Unspecified)
system.caches.m_missLatencyHistSeqr::bucket_size         1024                       (Unspecified)
system.caches.m_missLatencyHistSeqr::max_bucket        10239                       (Unspecified)
system.caches.m_missLatencyHistSeqr::samples      6783579                       (Unspecified)
system.caches.m_missLatencyHistSeqr::mean   557.505404                       (Unspecified)
system.caches.m_missLatencyHistSeqr::gmean   480.450019                       (Unspecified)
system.caches.m_missLatencyHistSeqr::stdev   325.301579                       (Unspecified)
system.caches.m_missLatencyHistSeqr      |     6473181     95.42%     95.42% |      217643      3.21%     98.63% |       90544      1.33%     99.97% |        2183      0.03%    100.00% |          27      0.00%    100.00% |           1      0.00%    100.00% |           0      0.00%    100.00% |           0      0.00%    100.00% |           0      0.00%    100.00% |           0      0.00%    100.00% (Unspecified)
system.caches.m_missLatencyHistSeqr::total      6783579                       (Unspecified)
system.caches.delayVCHist.vnet_0::bucket_size          512                       # delay histogram for vnet_0 (Unspecified)
system.caches.delayVCHist.vnet_0::max_bucket         5119                       # delay histogram for vnet_0 (Unspecified)
system.caches.delayVCHist.vnet_0::samples     19993743                       # delay histogram for vnet_0 (Unspecified)
system.caches.delayVCHist.vnet_0::mean       1.204836                       # delay histogram for vnet_0 (Unspecified)
system.caches.delayVCHist.vnet_0::stdev      3.466118                       # delay histogram for vnet_0 (Unspecified)
system.caches.delayVCHist.vnet_0         |    19993721    100.00%    100.00% |           7      0.00%    100.00% |           5      0.00%    100.00% |           6      0.00%    100.00% |           3      0.00%    100.00% |           0      0.00%    100.00% |           1      0.00%    100.00% |           0      0.00%    100.00% |           0      0.00%    100.00% |           0      0.00%    100.00% # delay histogram for vnet_0 (Unspecified)
system.caches.delayVCHist.vnet_0::total      19993743                       # delay histogram for vnet_0 (Unspecified)
system.caches.delayVCHist.vnet_1::bucket_size            8                       # delay histogram for vnet_1 (Unspecified)
system.caches.delayVCHist.vnet_1::max_bucket           79                       # delay histogram for vnet_1 (Unspecified)
system.caches.delayVCHist.vnet_1::samples     26800873                       # delay histogram for vnet_1 (Unspecified)
system.caches.delayVCHist.vnet_1::mean       0.039535                       # delay histogram for vnet_1 (Unspecified)
system.caches.delayVCHist.vnet_1::stdev      0.450167                       # delay histogram for vnet_1 (Unspecified)
system.caches.delayVCHist.vnet_1         |    26788700     99.95%     99.95% |       11736      0.04%    100.00% |         405      0.00%    100.00% |          23      0.00%    100.00% |           7      0.00%    100.00% |           2      0.00%    100.00% |           0      0.00%    100.00% |           0      0.00%    100.00% |           0      0.00%    100.00% |           0      0.00%    100.00% # delay histogram for vnet_1 (Unspecified)
system.caches.delayVCHist.vnet_1::total      26800873                       # delay histogram for vnet_1 (Unspecified)
system.caches.delayVCHist.vnet_2::bucket_size            1                       # delay histogram for vnet_2 (Unspecified)
system.caches.delayVCHist.vnet_2::max_bucket            9                       # delay histogram for vnet_2 (Unspecified)
system.caches.delayVCHist.vnet_2::samples       179614                       # delay histogram for vnet_2 (Unspecified)
system.caches.delayVCHist.vnet_2::mean       0.000679                       # delay histogram for vnet_2 (Unspecified)
system.caches.delayVCHist.vnet_2::stdev      0.043503                       # delay histogram for vnet_2 (Unspecified)
system.caches.delayVCHist.vnet_2         |      179564     99.97%     99.97% |           0      0.00%     99.97% |          40      0.02%     99.99% |           0      0.00%     99.99% |           9      0.01%    100.00% |           0      0.00%    100.00% |           1      0.00%    100.00% |           0      0.00%    100.00% |           0      0.00%    100.00% |           0      0.00%    100.00% # delay histogram for vnet_2 (Unspecified)
system.caches.delayVCHist.vnet_2::total        179614                       # delay histogram for vnet_2 (Unspecified)
system.caches.L1Cache_Controller.Load    |     8379490     12.03%     12.03% |     8395512     12.05%     24.08% |     8573962     12.31%     36.38% |     8819390     12.66%     49.04% |     8956659     12.86%     61.90% |     8311025     11.93%     73.83% |     9120781     13.09%     86.92% |     9115550     13.08%    100.00% (Unspecified)
system.caches.L1Cache_Controller.Load::total     69672369                       (Unspecified)
system.caches.L1Cache_Controller.Ifetch  |     4998962     12.29%     12.29% |     4975300     12.23%     24.52% |     5012957     12.32%     36.84% |     5268802     12.95%     49.79% |     5177764     12.73%     62.52% |     4934584     12.13%     74.65% |     5134036     12.62%     87.27% |     5180051     12.73%    100.00% (Unspecified)
system.caches.L1Cache_Controller.Ifetch::total     40682456                       (Unspecified)
system.caches.L1Cache_Controller.Store   |     8662388     12.38%     12.38% |     8659789     12.38%     24.76% |     8689663     12.42%     37.18% |     8914475     12.74%     49.92% |     8826338     12.62%     62.54% |     8605608     12.30%     74.84% |     8776361     12.55%     87.39% |     8823839     12.61%    100.00% (Unspecified)
system.caches.L1Cache_Controller.Store::total     69958461                       (Unspecified)
system.caches.L1Cache_Controller.Inv     |       22718     12.95%     12.95% |       20865     11.89%     24.83% |       21707     12.37%     37.20% |       21648     12.34%     49.54% |       22282     12.70%     62.24% |       22870     13.03%     75.27% |       21198     12.08%     87.35% |       22203     12.65%    100.00% (Unspecified)
system.caches.L1Cache_Controller.Inv::total       175491                       (Unspecified)
system.caches.L1Cache_Controller.L1_Replacement |      842043     12.53%     12.53% |      837767     12.47%     25.00% |      838453     12.48%     37.48% |      844787     12.57%     50.06% |      839685     12.50%     62.56% |      837975     12.47%     75.03% |      839015     12.49%     87.52% |      838522     12.48%    100.00% (Unspecified)
system.caches.L1Cache_Controller.L1_Replacement::total      6718247                       (Unspecified)
system.caches.L1Cache_Controller.Fwd_GETX |          28     12.79%     12.79% |          35     15.98%     28.77% |          28     12.79%     41.55% |          23     10.50%     52.05% |          17      7.76%     59.82% |          26     11.87%     71.69% |          32     14.61%     86.30% |          30     13.70%    100.00% (Unspecified)
system.caches.L1Cache_Controller.Fwd_GETX::total          219                       (Unspecified)
system.caches.L1Cache_Controller.Fwd_GETS |        1237     31.99%     31.99% |         384      9.93%     41.92% |         314      8.12%     50.04% |         344      8.90%     58.93% |         485     12.54%     71.48% |         223      5.77%     77.24% |         337      8.71%     85.96% |         543     14.04%    100.00% (Unspecified)
system.caches.L1Cache_Controller.Fwd_GETS::total         3867                       (Unspecified)
system.caches.L1Cache_Controller.Fwd_GET_INSTR |          37    100.00%    100.00% |           0      0.00%    100.00% |           0      0.00%    100.00% |           0      0.00%    100.00% |           0      0.00%    100.00% |           0      0.00%    100.00% |           0      0.00%    100.00% |           0      0.00%    100.00% (Unspecified)
system.caches.L1Cache_Controller.Fwd_GET_INSTR::total           37                       (Unspecified)
system.caches.L1Cache_Controller.Data    |          61    100.00%    100.00% |           0      0.00%    100.00% |           0      0.00%    100.00% |           0      0.00%    100.00% |           0      0.00%    100.00% |           0      0.00%    100.00% |           0      0.00%    100.00% |           0      0.00%    100.00% (Unspecified)
system.caches.L1Cache_Controller.Data::total           61                       (Unspecified)
system.caches.L1Cache_Controller.Data_Exclusive |      575773     12.50%     12.50% |      574700     12.48%     24.98% |      574457     12.47%     37.46% |      581579     12.63%     50.09% |      574905     12.48%     62.57% |      573496     12.45%     75.03% |      574965     12.49%     87.51% |      575012     12.49%    100.00% (Unspecified)
system.caches.L1Cache_Controller.Data_Exclusive::total      4604887                       (Unspecified)
system.caches.L1Cache_Controller.DataS_fromL1 |         279      7.15%      7.15% |        1192     30.53%     37.68% |         565     14.47%     52.15% |         289      7.40%     59.55% |         461     11.81%     71.36% |         444     11.37%     82.74% |         404     10.35%     93.08% |         270      6.92%    100.00% (Unspecified)
system.caches.L1Cache_Controller.DataS_fromL1::total         3904                       (Unspecified)
system.caches.L1Cache_Controller.Data_all_Acks |      274029     12.60%     12.60% |      269916     12.41%     25.02% |      271427     12.48%     37.50% |      271350     12.48%     49.98% |      272382     12.53%     62.51% |      271812     12.50%     75.01% |      271818     12.50%     87.51% |      271504     12.49%    100.00% (Unspecified)
system.caches.L1Cache_Controller.Data_all_Acks::total      2174238                       (Unspecified)
system.caches.L1Cache_Controller.Ack     |        1083     67.94%     67.94% |          58      3.64%     71.58% |          59      3.70%     75.28% |          84      5.27%     80.55% |         144      9.03%     89.59% |          64      4.02%     93.60% |          50      3.14%     96.74% |          52      3.26%    100.00% (Unspecified)
system.caches.L1Cache_Controller.Ack::total         1594                       (Unspecified)
system.caches.L1Cache_Controller.Ack_all |         356     64.73%     64.73% |          20      3.64%     68.36% |          21      3.82%     72.18% |          31      5.64%     77.82% |          42      7.64%     85.45% |          30      5.45%     90.91% |          24      4.36%     95.27% |          26      4.73%    100.00% (Unspecified)
system.caches.L1Cache_Controller.Ack_all::total          550                       (Unspecified)
system.caches.L1Cache_Controller.WB_Ack  |      825564     12.57%     12.57% |      819880     12.48%     25.05% |      820309     12.49%     37.53% |      827294     12.59%     50.13% |      819459     12.47%     62.60% |      818603     12.46%     75.06% |      819981     12.48%     87.54% |      818390     12.46%    100.00% (Unspecified)
system.caches.L1Cache_Controller.WB_Ack::total      6569480                       (Unspecified)
system.caches.L1Cache_Controller.NP.Load |      579461     12.49%     12.49% |      578784     12.48%     24.97% |      578678     12.47%     37.44% |      585758     12.63%     50.06% |      579577     12.49%     62.56% |      577791     12.45%     75.01% |      579688     12.49%     87.51% |      579656     12.49%    100.00% (Unspecified)
system.caches.L1Cache_Controller.NP.Load::total      4639393                       (Unspecified)
system.caches.L1Cache_Controller.NP.Ifetch |        8025     16.08%     16.08% |        5084     10.19%     26.27% |        5702     11.43%     37.70% |        5539     11.10%     48.80% |        6879     13.79%     62.58% |        5761     11.55%     74.13% |        6331     12.69%     86.82% |        6579     13.18%    100.00% (Unspecified)
system.caches.L1Cache_Controller.NP.Ifetch::total        49900                       (Unspecified)
system.caches.L1Cache_Controller.NP.Store |      254743     12.55%     12.55% |      254009     12.51%     25.06% |      254183     12.52%     37.58% |      253594     12.49%     50.08% |      253339     12.48%     62.56% |      254534     12.54%     75.10% |      253104     12.47%     87.57% |      252397     12.43%    100.00% (Unspecified)
system.caches.L1Cache_Controller.NP.Store::total      2029903                       (Unspecified)
system.caches.L1Cache_Controller.NP.Inv  |        7542     13.65%     13.65% |        6228     11.27%     24.92% |        6550     11.85%     36.77% |        6348     11.49%     48.26% |        7639     13.82%     62.09% |        6539     11.83%     73.92% |        7095     12.84%     86.76% |        7316     13.24%    100.00% (Unspecified)
system.caches.L1Cache_Controller.NP.Inv::total        55257                       (Unspecified)
system.caches.L1Cache_Controller.I.Load  |         748     10.87%     10.87% |         893     12.98%     23.85% |         883     12.83%     36.68% |         953     13.85%     50.53% |         896     13.02%     63.55% |         862     12.53%     76.08% |         815     11.84%     87.92% |         831     12.08%    100.00% (Unspecified)
system.caches.L1Cache_Controller.I.Load::total         6881                       (Unspecified)
system.caches.L1Cache_Controller.I.Ifetch |        6933     12.49%     12.49% |        6884     12.40%     24.89% |        6829     12.30%     37.19% |        7142     12.86%     50.05% |        6878     12.39%     62.44% |        6661     12.00%     74.43% |        7061     12.72%     87.15% |        7134     12.85%    100.00% (Unspecified)
system.caches.L1Cache_Controller.I.Ifetch::total        55522                       (Unspecified)
system.caches.L1Cache_Controller.I.Store |         234     15.63%     15.63% |         156     10.42%     26.05% |         174     11.62%     37.68% |         232     15.50%     53.17% |         180     12.02%     65.20% |         143      9.55%     74.75% |         188     12.56%     87.31% |         190     12.69%    100.00% (Unspecified)
system.caches.L1Cache_Controller.I.Store::total         1497                       (Unspecified)
system.caches.L1Cache_Controller.I.L1_Replacement |        7024      8.79%      8.79% |       10480     13.12%     21.91% |       10205     12.77%     34.68% |        9558     11.96%     46.64% |       10575     13.24%     59.88% |       11461     14.34%     74.23% |       10017     12.54%     86.76% |       10576     13.24%    100.00% (Unspecified)
system.caches.L1Cache_Controller.I.L1_Replacement::total        79896                       (Unspecified)
system.caches.L1Cache_Controller.S.Load  |     1644607     11.60%     11.60% |     1710304     12.06%     23.66% |     1802837     12.71%     36.37% |     1656554     11.68%     48.05% |     1860904     13.12%     61.17% |     1481242     10.44%     71.62% |     2122296     14.97%     86.58% |     1902701     13.42%    100.00% (Unspecified)
system.caches.L1Cache_Controller.S.Load::total     14181445                       (Unspecified)
system.caches.L1Cache_Controller.S.Ifetch |     4983991     12.28%     12.28% |     4963332     12.23%     24.51% |     5000426     12.32%     36.84% |     5256121     12.95%     49.79% |     5164007     12.73%     62.52% |     4922162     12.13%     74.65% |     5120644     12.62%     87.27% |     5166338     12.73%    100.00% (Unspecified)
system.caches.L1Cache_Controller.S.Ifetch::total     40577021                       (Unspecified)
system.caches.L1Cache_Controller.S.Store |         295     60.33%     60.33% |          20      4.09%     64.42% |          21      4.29%     68.71% |          31      6.34%     75.05% |          42      8.59%     83.64% |          30      6.13%     89.78% |          24      4.91%     94.68% |          26      5.32%    100.00% (Unspecified)
system.caches.L1Cache_Controller.S.Store::total          489                       (Unspecified)
system.caches.L1Cache_Controller.S.Inv   |       10511     13.45%     13.45% |        9542     12.21%     25.65% |        9631     12.32%     37.97% |        9757     12.48%     50.46% |        9736     12.46%     62.91% |        9492     12.14%     75.06% |        9771     12.50%     87.56% |        9728     12.44%    100.00% (Unspecified)
system.caches.L1Cache_Controller.S.Inv::total        78168                       (Unspecified)
system.caches.L1Cache_Controller.S.L1_Replacement |        9455     13.73%     13.73% |        7407     10.75%     24.48% |        7939     11.53%     36.01% |        7935     11.52%     47.53% |        9651     14.01%     61.55% |        7911     11.49%     73.03% |        9017     13.09%     86.12% |        9556     13.88%    100.00% (Unspecified)
system.caches.L1Cache_Controller.S.L1_Replacement::total        68871                       (Unspecified)
system.caches.L1Cache_Controller.E.Load  |     2979698     11.93%     11.93% |     2945993     11.79%     23.72% |     3005808     12.03%     35.76% |     3223448     12.91%     48.66% |     3214192     12.87%     61.53% |     3124072     12.51%     74.04% |     3152856     12.62%     86.66% |     3330935     13.34%    100.00% (Unspecified)
system.caches.L1Cache_Controller.E.Load::total     24977002                       (Unspecified)
system.caches.L1Cache_Controller.E.Store |       75013     12.60%     12.60% |       74715     12.55%     25.15% |       74654     12.54%     37.69% |       75058     12.61%     50.29% |       73816     12.40%     62.69% |       74250     12.47%     75.16% |       73990     12.43%     87.59% |       73875     12.41%    100.00% (Unspecified)
system.caches.L1Cache_Controller.E.Store::total       595371                       (Unspecified)
system.caches.L1Cache_Controller.E.Inv   |        3415     11.61%     11.61% |        3242     11.02%     22.62% |        3990     13.56%     36.18% |        3752     12.75%     48.93% |        3350     11.38%     60.32% |        4819     16.38%     76.69% |        3451     11.73%     88.42% |        3407     11.58%    100.00% (Unspecified)
system.caches.L1Cache_Controller.E.Inv::total        29426                       (Unspecified)
system.caches.L1Cache_Controller.E.L1_Replacement |      494784     12.48%     12.48% |      494568     12.48%     24.96% |      494246     12.47%     37.42% |      501367     12.65%     50.07% |      495572     12.50%     62.57% |      492993     12.44%     75.01% |      495334     12.49%     87.50% |      495509     12.50%    100.00% (Unspecified)
system.caches.L1Cache_Controller.E.L1_Replacement::total      3964373                       (Unspecified)
system.caches.L1Cache_Controller.E.Fwd_GETX |           8     10.96%     10.96% |          17     23.29%     34.25% |          12     16.44%     50.68% |          10     13.70%     64.38% |           2      2.74%     67.12% |           8     10.96%     78.08% |           8     10.96%     89.04% |           8     10.96%    100.00% (Unspecified)
system.caches.L1Cache_Controller.E.Fwd_GETX::total           73                       (Unspecified)
system.caches.L1Cache_Controller.E.Fwd_GETS |         777     24.76%     24.76% |         366     11.66%     36.42% |         295      9.40%     45.83% |         309      9.85%     55.67% |         361     11.50%     67.18% |         195      6.21%     73.39% |         315     10.04%     83.43% |         520     16.57%    100.00% (Unspecified)
system.caches.L1Cache_Controller.E.Fwd_GETS::total         3138                       (Unspecified)
system.caches.L1Cache_Controller.E.Fwd_GET_INSTR |          36    100.00%    100.00% |           0      0.00%    100.00% |           0      0.00%    100.00% |           0      0.00%    100.00% |           0      0.00%    100.00% |           0      0.00%    100.00% |           0      0.00%    100.00% |           0      0.00%    100.00% (Unspecified)
system.caches.L1Cache_Controller.E.Fwd_GET_INSTR::total           36                       (Unspecified)
system.caches.L1Cache_Controller.M.Load  |     3174976     12.27%     12.27% |     3159538     12.21%     24.49% |     3185756     12.32%     36.80% |     3352677     12.96%     49.76% |     3301090     12.76%     62.53% |     3127058     12.09%     74.61% |     3265125     12.62%     87.24% |     3301427     12.76%    100.00% (Unspecified)
system.caches.L1Cache_Controller.M.Load::total     25867647                       (Unspecified)
system.caches.L1Cache_Controller.M.Store |     8332103     12.37%     12.37% |     8330889     12.37%     24.75% |     8360631     12.42%     37.16% |     8585560     12.75%     49.92% |     8498961     12.62%     62.54% |     8276651     12.29%     74.83% |     8449055     12.55%     87.38% |     8497351     12.62%    100.00% (Unspecified)
system.caches.L1Cache_Controller.M.Store::total     67331201                       (Unspecified)
system.caches.L1Cache_Controller.M.Inv   |        1250     10.07%     10.07% |        1821     14.67%     24.75% |        1505     12.13%     36.88% |        1743     14.05%     50.92% |        1498     12.07%     62.99% |        1976     15.92%     78.92% |         867      6.99%     85.91% |        1749     14.09%    100.00% (Unspecified)
system.caches.L1Cache_Controller.M.Inv::total        12409                       (Unspecified)
system.caches.L1Cache_Controller.M.L1_Replacement |      330780     12.70%     12.70% |      325312     12.49%     25.18% |      326063     12.52%     37.70% |      325927     12.51%     50.21% |      323887     12.43%     62.64% |      325610     12.50%     75.14% |      324647     12.46%     87.61% |      322881     12.39%    100.00% (Unspecified)
system.caches.L1Cache_Controller.M.L1_Replacement::total      2605107                       (Unspecified)
system.caches.L1Cache_Controller.M.Fwd_GETX |          20     13.70%     13.70% |          18     12.33%     26.03% |          16     10.96%     36.99% |          13      8.90%     45.89% |          15     10.27%     56.16% |          18     12.33%     68.49% |          24     16.44%     84.93% |          22     15.07%    100.00% (Unspecified)
system.caches.L1Cache_Controller.M.Fwd_GETX::total          146                       (Unspecified)
system.caches.L1Cache_Controller.M.Fwd_GETS |         460     63.10%     63.10% |          18      2.47%     65.57% |          19      2.61%     68.18% |          35      4.80%     72.98% |         124     17.01%     89.99% |          28      3.84%     93.83% |          22      3.02%     96.84% |          23      3.16%    100.00% (Unspecified)
system.caches.L1Cache_Controller.M.Fwd_GETS::total          729                       (Unspecified)
system.caches.L1Cache_Controller.IS.Inv  |           0      0.00%      0.00% |          30     13.95%     13.95% |          30     13.95%     27.91% |          46     21.40%     49.30% |          58     26.98%     76.28% |          41     19.07%     95.35% |          10      4.65%    100.00% |           0      0.00%    100.00% (Unspecified)
system.caches.L1Cache_Controller.IS.Inv::total          215                       (Unspecified)
system.caches.L1Cache_Controller.IS.Data_Exclusive |      575773     12.50%     12.50% |      574700     12.48%     24.98% |      574457     12.47%     37.46% |      581579     12.63%     50.09% |      574905     12.48%     62.57% |      573496     12.45%     75.03% |      574965     12.49%     87.51% |      575012     12.49%    100.00% (Unspecified)
system.caches.L1Cache_Controller.IS.Data_Exclusive::total      4604887                       (Unspecified)
system.caches.L1Cache_Controller.IS.DataS_fromL1 |         279      7.15%      7.15% |        1192     30.53%     37.68% |         565     14.47%     52.15% |         289      7.40%     59.55% |         461     11.81%     71.36% |         444     11.37%     82.74% |         404     10.35%     93.08% |         270      6.92%    100.00% (Unspecified)
system.caches.L1Cache_Controller.IS.DataS_fromL1::total         3904                       (Unspecified)
system.caches.L1Cache_Controller.IS.Data_all_Acks |       19113     13.40%     13.40% |       15721     11.02%     24.41% |       17040     11.94%     36.36% |       17478     12.25%     48.60% |       18806     13.18%     61.78% |       17094     11.98%     73.76% |       18516     12.98%     86.74% |       18918     13.26%    100.00% (Unspecified)
system.caches.L1Cache_Controller.IS.Data_all_Acks::total       142686                       (Unspecified)
system.caches.L1Cache_Controller.IM.Data |          61    100.00%    100.00% |           0      0.00%    100.00% |           0      0.00%    100.00% |           0      0.00%    100.00% |           0      0.00%    100.00% |           0      0.00%    100.00% |           0      0.00%    100.00% |           0      0.00%    100.00% (Unspecified)
system.caches.L1Cache_Controller.IM.Data::total           61                       (Unspecified)
system.caches.L1Cache_Controller.IM.Data_all_Acks |      254916     12.55%     12.55% |      254165     12.51%     25.06% |      254357     12.52%     37.58% |      253826     12.50%     50.08% |      253518     12.48%     62.56% |      254677     12.54%     75.10% |      253292     12.47%     87.57% |      252586     12.43%    100.00% (Unspecified)
system.caches.L1Cache_Controller.IM.Data_all_Acks::total      2031337                       (Unspecified)
system.caches.L1Cache_Controller.SM.Ack  |        1083     67.94%     67.94% |          58      3.64%     71.58% |          59      3.70%     75.28% |          84      5.27%     80.55% |         144      9.03%     89.59% |          64      4.02%     93.60% |          50      3.14%     96.74% |          52      3.26%    100.00% (Unspecified)
system.caches.L1Cache_Controller.SM.Ack::total         1594                       (Unspecified)
system.caches.L1Cache_Controller.SM.Ack_all |         356     64.73%     64.73% |          20      3.64%     68.36% |          21      3.82%     72.18% |          31      5.64%     77.82% |          42      7.64%     85.45% |          30      5.45%     90.91% |          24      4.36%     95.27% |          26      4.73%    100.00% (Unspecified)
system.caches.L1Cache_Controller.SM.Ack_all::total          550                       (Unspecified)
system.caches.L1Cache_Controller.IS_I.Data_all_Acks |           0      0.00%      0.00% |          30     13.95%     13.95% |          30     13.95%     27.91% |          46     21.40%     49.30% |          58     26.98%     76.28% |          41     19.07%     95.35% |          10      4.65%    100.00% |           0      0.00%    100.00% (Unspecified)
system.caches.L1Cache_Controller.IS_I.Data_all_Acks::total          215                       (Unspecified)
system.caches.L1Cache_Controller.M_I.Load |           0      0.00%      0.00% |           0      0.00%      0.00% |           0      0.00%      0.00% |           0      0.00%      0.00% |           0      0.00%      0.00% |           0      0.00%      0.00% |           1    100.00%    100.00% |           0      0.00%    100.00% (Unspecified)
system.caches.L1Cache_Controller.M_I.Load::total            1                       (Unspecified)
system.caches.L1Cache_Controller.M_I.Ifetch |          13    100.00%    100.00% |           0      0.00%    100.00% |           0      0.00%    100.00% |           0      0.00%    100.00% |           0      0.00%    100.00% |           0      0.00%    100.00% |           0      0.00%    100.00% |           0      0.00%    100.00% (Unspecified)
system.caches.L1Cache_Controller.M_I.Ifetch::total           13                       (Unspecified)
system.caches.L1Cache_Controller.M_I.Inv |           0      0.00%      0.00% |           2     12.50%     12.50% |           1      6.25%     18.75% |           2     12.50%     31.25% |           1      6.25%     37.50% |           3     18.75%     56.25% |           4     25.00%     81.25% |           3     18.75%    100.00% (Unspecified)
system.caches.L1Cache_Controller.M_I.Inv::total           16                       (Unspecified)
system.caches.L1Cache_Controller.M_I.Fwd_GET_INSTR |           1    100.00%    100.00% |           0      0.00%    100.00% |           0      0.00%    100.00% |           0      0.00%    100.00% |           0      0.00%    100.00% |           0      0.00%    100.00% |           0      0.00%    100.00% |           0      0.00%    100.00% (Unspecified)
system.caches.L1Cache_Controller.M_I.Fwd_GET_INSTR::total            1                       (Unspecified)
system.caches.L1Cache_Controller.M_I.WB_Ack |      825563     12.57%     12.57% |      819878     12.48%     25.05% |      820308     12.49%     37.53% |      827292     12.59%     50.13% |      819458     12.47%     62.60% |      818600     12.46%     75.06% |      819977     12.48%     87.54% |      818387     12.46%    100.00% (Unspecified)
system.caches.L1Cache_Controller.M_I.WB_Ack::total      6569463                       (Unspecified)
system.caches.L1Cache_Controller.SINK_WB_ACK.WB_Ack |           1      5.88%      5.88% |           2     11.76%     17.65% |           1      5.88%     23.53% |           2     11.76%     35.29% |           1      5.88%     41.18% |           3     17.65%     58.82% |           4     23.53%     82.35% |           3     17.65%    100.00% (Unspecified)
system.caches.L1Cache_Controller.SINK_WB_ACK.WB_Ack::total           17                       (Unspecified)
system.caches.Directory_Controller.Fetch |       15566      0.23%      0.23% |     6618647     99.77%    100.00% (Unspecified)
system.caches.Directory_Controller.Fetch::total      6634213                       (Unspecified)
system.caches.Directory_Controller.Data  |        1033      0.04%      0.04% |     2656365     99.96%    100.00% (Unspecified)
system.caches.Directory_Controller.Data::total      2657398                       (Unspecified)
system.caches.Directory_Controller.Memory_Data |       15566      0.23%      0.23% |     6618641     99.77%    100.00% (Unspecified)
system.caches.Directory_Controller.Memory_Data::total      6634207                       (Unspecified)
system.caches.Directory_Controller.Memory_Ack |        1033      0.04%      0.04% |     2656365     99.96%    100.00% (Unspecified)
system.caches.Directory_Controller.Memory_Ack::total      2657398                       (Unspecified)
system.caches.Directory_Controller.CleanReplacement |       14332      0.36%      0.36% |     3962483     99.64%    100.00% (Unspecified)
system.caches.Directory_Controller.CleanReplacement::total      3976815                       (Unspecified)
system.caches.Directory_Controller.I.Fetch |       15566      0.23%      0.23% |     6618647     99.77%    100.00% (Unspecified)
system.caches.Directory_Controller.I.Fetch::total      6634213                       (Unspecified)
system.caches.Directory_Controller.M.Data |        1033      0.04%      0.04% |     2656365     99.96%    100.00% (Unspecified)
system.caches.Directory_Controller.M.Data::total      2657398                       (Unspecified)
system.caches.Directory_Controller.M.CleanReplacement |       14332      0.36%      0.36% |     3962483     99.64%    100.00% (Unspecified)
system.caches.Directory_Controller.M.CleanReplacement::total      3976815                       (Unspecified)
system.caches.Directory_Controller.IM.Memory_Data |       15566      0.23%      0.23% |     6618641     99.77%    100.00% (Unspecified)
system.caches.Directory_Controller.IM.Memory_Data::total      6634207                       (Unspecified)
system.caches.Directory_Controller.MI.Memory_Ack |        1033      0.04%      0.04% |     2656365     99.96%    100.00% (Unspecified)
system.caches.Directory_Controller.MI.Memory_Ack::total      2657398                       (Unspecified)
system.caches.L2Cache_Controller.L1_GET_INSTR |       14134     13.38%     13.38% |       13766     13.03%     26.41% |       12968     12.27%     38.68% |       10218      9.67%     48.35% |       13628     12.90%     61.25% |       13378     12.66%     73.91% |       13231     12.52%     86.43% |       14333     13.57%    100.00% (Unspecified)
system.caches.L2Cache_Controller.L1_GET_INSTR::total       105656                       (Unspecified)
system.caches.L2Cache_Controller.L1_GETS |      584221     12.57%     12.57% |      581176     12.50%     25.07% |      580691     12.49%     37.56% |      579619     12.47%     50.03% |      579649     12.47%     62.50% |      580137     12.48%     74.98% |      581413     12.51%     87.49% |      581407     12.51%    100.00% (Unspecified)
system.caches.L2Cache_Controller.L1_GETS::total      4648313                       (Unspecified)
system.caches.L2Cache_Controller.L1_GETX |      254377     12.52%     12.52% |      253664     12.49%     25.01% |      252706     12.44%     37.45% |      253392     12.47%     49.92% |      253846     12.49%     62.41% |      255135     12.56%     74.97% |      253982     12.50%     87.47% |      254500     12.53%    100.00% (Unspecified)
system.caches.L2Cache_Controller.L1_GETX::total      2031602                       (Unspecified)
system.caches.L2Cache_Controller.L1_UPGRADE |          14      2.41%      2.41% |          42      7.24%      9.66% |          50      8.62%     18.28% |          13      2.24%     20.52% |          51      8.79%     29.31% |          18      3.10%     32.41% |         374     64.48%     96.90% |          18      3.10%    100.00% (Unspecified)
system.caches.L2Cache_Controller.L1_UPGRADE::total          580                       (Unspecified)
system.caches.L2Cache_Controller.L1_PUTX |      821157     12.50%     12.50% |      821195     12.50%     25.00% |      819703     12.48%     37.48% |      820879     12.50%     49.97% |      821093     12.50%     62.47% |      822856     12.53%     75.00% |      820998     12.50%     87.49% |      821584     12.51%    100.00% (Unspecified)
system.caches.L2Cache_Controller.L1_PUTX::total      6569465                       (Unspecified)
system.caches.L2Cache_Controller.L1_PUTX_old |           4     12.90%     12.90% |           6     19.35%     32.26% |           0      0.00%     32.26% |           6     19.35%     51.61% |           2      6.45%     58.06% |           7     22.58%     80.65% |           4     12.90%     93.55% |           2      6.45%    100.00% (Unspecified)
system.caches.L2Cache_Controller.L1_PUTX_old::total           31                       (Unspecified)
system.caches.L2Cache_Controller.L2_Replacement |      330963     12.51%     12.51% |      330254     12.49%     25.00% |      329321     12.45%     37.45% |      330339     12.49%     49.94% |      330247     12.49%     62.42% |      332099     12.56%     74.98% |      330515     12.50%     87.47% |      331345     12.53%    100.00% (Unspecified)
system.caches.L2Cache_Controller.L2_Replacement::total      2645083                       (Unspecified)
system.caches.L2Cache_Controller.L2_Replacement_clean |      498839     12.50%     12.50% |      499450     12.52%     25.03% |      498098     12.49%     37.51% |      497892     12.48%     49.99% |      498698     12.50%     62.49% |      498923     12.51%     75.00% |      498452     12.50%     87.50% |      498778     12.50%    100.00% (Unspecified)
system.caches.L2Cache_Controller.L2_Replacement_clean::total      3989130                       (Unspecified)
system.caches.L2Cache_Controller.Mem_Data |      829801     12.51%     12.51% |      829702     12.51%     25.01% |      827419     12.47%     37.49% |      828231     12.48%     49.97% |      828945     12.50%     62.47% |      831022     12.53%     74.99% |      828965     12.50%     87.49% |      830122     12.51%    100.00% (Unspecified)
system.caches.L2Cache_Controller.Mem_Data::total      6634207                       (Unspecified)
system.caches.L2Cache_Controller.Mem_Ack |      829802     12.51%     12.51% |      829704     12.51%     25.01% |      827419     12.47%     37.49% |      828231     12.48%     49.97% |      828945     12.50%     62.47% |      831022     12.53%     74.99% |      828966     12.50%     87.49% |      830123     12.51%    100.00% (Unspecified)
system.caches.L2Cache_Controller.Mem_Ack::total      6634212                       (Unspecified)
system.caches.L2Cache_Controller.WB_Data |        1847     14.05%     14.05% |        1610     12.25%     26.30% |        1336     10.17%     36.47% |        1449     11.02%     47.49% |        1468     11.17%     58.66% |        1690     12.86%     71.52% |        1947     14.81%     86.33% |        1796     13.67%    100.00% (Unspecified)
system.caches.L2Cache_Controller.WB_Data::total        13143                       (Unspecified)
system.caches.L2Cache_Controller.WB_Data_clean |         573     17.98%     17.98% |         409     12.84%     30.82% |         404     12.68%     43.50% |         360     11.30%     54.80% |         293      9.20%     64.00% |         342     10.73%     74.73% |         461     14.47%     89.20% |         344     10.80%    100.00% (Unspecified)
system.caches.L2Cache_Controller.WB_Data_clean::total         3186                       (Unspecified)
system.caches.L2Cache_Controller.Ack     |       17039     15.37%     15.37% |       14730     13.28%     28.65% |       14318     12.91%     41.56% |       10759      9.70%     51.26% |       13335     12.03%     63.29% |       12985     11.71%     75.00% |       12815     11.56%     86.55% |       14912     13.45%    100.00% (Unspecified)
system.caches.L2Cache_Controller.Ack::total       110893                       (Unspecified)
system.caches.L2Cache_Controller.Ack_all |        6622     13.11%     13.11% |        6688     13.24%     26.35% |        6100     12.07%     38.42% |        5734     11.35%     49.77% |        6186     12.25%     62.02% |        6445     12.76%     74.78% |        6108     12.09%     86.87% |        6635     13.13%    100.00% (Unspecified)
system.caches.L2Cache_Controller.Ack_all::total        50518                       (Unspecified)
system.caches.L2Cache_Controller.Unblock |         689     17.65%     17.65% |         467     11.96%     29.61% |         465     11.91%     41.52% |         412     10.55%     52.07% |         343      8.79%     60.86% |         359      9.20%     70.06% |         807     20.67%     90.73% |         362      9.27%    100.00% (Unspecified)
system.caches.L2Cache_Controller.Unblock::total         3904                       (Unspecified)
system.caches.L2Cache_Controller.Exclusive_Unblock |      829748     12.50%     12.50% |      829734     12.50%     25.00% |      827524     12.47%     37.47% |      828942     12.49%     49.96% |      829267     12.50%     62.46% |      831643     12.53%     74.99% |      829732     12.50%     87.49% |      830184     12.51%    100.00% (Unspecified)
system.caches.L2Cache_Controller.Exclusive_Unblock::total      6636774                       (Unspecified)
system.caches.L2Cache_Controller.NP.L1_GET_INSTR |        1995     12.97%     12.97% |        2128     13.84%     26.81% |        1955     12.71%     39.52% |        1557     10.12%     49.65% |        1940     12.62%     62.26% |        1868     12.15%     74.41% |        1847     12.01%     86.42% |        2088     13.58%    100.00% (Unspecified)
system.caches.L2Cache_Controller.NP.L1_GET_INSTR::total        15378                       (Unspecified)
system.caches.L2Cache_Controller.NP.L1_GETS |      573494     12.50%     12.50% |      573955     12.51%     25.01% |      572815     12.49%     37.50% |      573322     12.50%     49.99% |      573333     12.50%     62.49% |      574133     12.51%     75.00% |      573264     12.50%     87.50% |      573629     12.50%    100.00% (Unspecified)
system.caches.L2Cache_Controller.NP.L1_GETS::total      4587945                       (Unspecified)
system.caches.L2Cache_Controller.NP.L1_GETX |      254313     12.52%     12.52% |      253621     12.49%     25.01% |      252649     12.44%     37.45% |      253352     12.47%     49.93% |      253672     12.49%     62.42% |      255021     12.56%     74.97% |      253856     12.50%     87.47% |      254406     12.53%    100.00% (Unspecified)
system.caches.L2Cache_Controller.NP.L1_GETX::total      2030890                       (Unspecified)
system.caches.L2Cache_Controller.NP.L1_PUTX_old |           2     13.33%     13.33% |           3     20.00%     33.33% |           0      0.00%     33.33% |           3     20.00%     53.33% |           1      6.67%     60.00% |           3     20.00%     80.00% |           2     13.33%     93.33% |           1      6.67%    100.00% (Unspecified)
system.caches.L2Cache_Controller.NP.L1_PUTX_old::total           15                       (Unspecified)
system.caches.L2Cache_Controller.SS.L1_GET_INSTR |        8119     13.51%     13.51% |        7302     12.15%     25.66% |        7488     12.46%     38.12% |        5619      9.35%     47.47% |        7706     12.82%     60.29% |        7398     12.31%     72.61% |        7743     12.88%     85.49% |        8720     14.51%    100.00% (Unspecified)
system.caches.L2Cache_Controller.SS.L1_GET_INSTR::total        60095                       (Unspecified)
system.caches.L2Cache_Controller.SS.L1_GETS |        6242     22.86%     22.86% |        3134     11.48%     34.33% |        3833     14.04%     48.37% |        2386      8.74%     57.10% |        2595      9.50%     66.61% |        2079      7.61%     74.22% |        3179     11.64%     85.86% |        3862     14.14%    100.00% (Unspecified)
system.caches.L2Cache_Controller.SS.L1_GETS::total        27310                       (Unspecified)
system.caches.L2Cache_Controller.SS.L1_GETX |          31     50.82%     50.82% |           0      0.00%     50.82% |           0      0.00%     50.82% |           0      0.00%     50.82% |           0      0.00%     50.82% |           0      0.00%     50.82% |          30     49.18%    100.00% |           0      0.00%    100.00% (Unspecified)
system.caches.L2Cache_Controller.SS.L1_GETX::total           61                       (Unspecified)
system.caches.L2Cache_Controller.SS.L1_UPGRADE |          14      2.86%      2.86% |          42      8.59%     11.45% |          50     10.22%     21.68% |          13      2.66%     24.34% |          51     10.43%     34.76% |          18      3.68%     38.45% |         283     57.87%     96.32% |          18      3.68%    100.00% (Unspecified)
system.caches.L2Cache_Controller.SS.L1_UPGRADE::total          489                       (Unspecified)
system.caches.L2Cache_Controller.SS.L1_PUTX |           0      0.00%      0.00% |           1    100.00%    100.00% |           0      0.00%    100.00% |           0      0.00%    100.00% |           0      0.00%    100.00% |           0      0.00%    100.00% |           0      0.00%    100.00% |           0      0.00%    100.00% (Unspecified)
system.caches.L2Cache_Controller.SS.L1_PUTX::total            1                       (Unspecified)
system.caches.L2Cache_Controller.SS.L2_Replacement |         102     34.58%     34.58% |          53     17.97%     52.54% |          13      4.41%     56.95% |          51     17.29%     74.24% |           6      2.03%     76.27% |           3      1.02%     77.29% |          65     22.03%     99.32% |           2      0.68%    100.00% (Unspecified)
system.caches.L2Cache_Controller.SS.L2_Replacement::total          295                       (Unspecified)
system.caches.L2Cache_Controller.SS.L2_Replacement_clean |        2981     14.33%     14.33% |        2793     13.43%     27.76% |        2727     13.11%     40.88% |        2145     10.31%     51.19% |        2499     12.02%     63.21% |        2432     11.69%     74.90% |        2376     11.42%     86.32% |        2844     13.68%    100.00% (Unspecified)
system.caches.L2Cache_Controller.SS.L2_Replacement_clean::total        20797                       (Unspecified)
system.caches.L2Cache_Controller.M.L1_GET_INSTR |           2      8.00%      8.00% |           6     24.00%     32.00% |           3     12.00%     44.00% |           2      8.00%     52.00% |           2      8.00%     60.00% |           5     20.00%     80.00% |           3     12.00%     92.00% |           2      8.00%    100.00% (Unspecified)
system.caches.L2Cache_Controller.M.L1_GET_INSTR::total           25                       (Unspecified)
system.caches.L2Cache_Controller.M.L1_GETS |        2398     12.09%     12.09% |        2449     12.35%     24.44% |        2400     12.10%     36.54% |        2517     12.69%     49.23% |        2469     12.45%     61.68% |        2653     13.38%     75.06% |        2393     12.07%     87.13% |        2553     12.87%    100.00% (Unspecified)
system.caches.L2Cache_Controller.M.L1_GETS::total        19832                       (Unspecified)
system.caches.L2Cache_Controller.M.L1_GETX |           3      1.30%      1.30% |           0      0.00%      1.30% |          27     11.74%     13.04% |          26     11.30%     24.35% |          29     12.61%     36.96% |          35     15.22%     52.17% |          62     26.96%     79.13% |          48     20.87%    100.00% (Unspecified)
system.caches.L2Cache_Controller.M.L1_GETX::total          230                       (Unspecified)
system.caches.L2Cache_Controller.M.L2_Replacement |      330859     12.51%     12.51% |      330201     12.49%     25.00% |      329295     12.45%     37.45% |      330273     12.49%     49.94% |      330224     12.49%     62.42% |      332085     12.56%     74.98% |      330421     12.49%     87.47% |      331331     12.53%    100.00% (Unspecified)
system.caches.L2Cache_Controller.M.L2_Replacement::total      2644689                       (Unspecified)
system.caches.L2Cache_Controller.M.L2_Replacement_clean |      490590     12.49%     12.49% |      491263     12.51%     25.01% |      490749     12.50%     37.50% |      490827     12.50%     50.00% |      491117     12.51%     62.51% |      490819     12.50%     75.01% |      490837     12.50%     87.51% |      490379     12.49%    100.00% (Unspecified)
system.caches.L2Cache_Controller.M.L2_Replacement_clean::total      3926581                       (Unspecified)
system.caches.L2Cache_Controller.MT.L1_GET_INSTR |           8     21.62%     21.62% |           6     16.22%     37.84% |           4     10.81%     48.65% |           2      5.41%     54.05% |           3      8.11%     62.16% |           4     10.81%     72.97% |           6     16.22%     89.19% |           4     10.81%    100.00% (Unspecified)
system.caches.L2Cache_Controller.MT.L1_GET_INSTR::total           37                       (Unspecified)
system.caches.L2Cache_Controller.MT.L1_GETS |         681     17.61%     17.61% |         461     11.92%     29.53% |         461     11.92%     41.45% |         410     10.60%     52.06% |         340      8.79%     60.85% |         355      9.18%     70.03% |         801     20.71%     90.74% |         358      9.26%    100.00% (Unspecified)
system.caches.L2Cache_Controller.MT.L1_GETS::total         3867                       (Unspecified)
system.caches.L2Cache_Controller.MT.L1_GETX |          17      7.76%      7.76% |          29     13.24%     21.00% |          22     10.05%     31.05% |           7      3.20%     34.25% |          51     23.29%     57.53% |          66     30.14%     87.67% |          11      5.02%     92.69% |          16      7.31%    100.00% (Unspecified)
system.caches.L2Cache_Controller.MT.L1_GETX::total          219                       (Unspecified)
system.caches.L2Cache_Controller.MT.L1_PUTX |      821157     12.50%     12.50% |      821193     12.50%     25.00% |      819703     12.48%     37.48% |      820879     12.50%     49.97% |      821093     12.50%     62.47% |      822856     12.53%     75.00% |      820998     12.50%     87.49% |      821584     12.51%    100.00% (Unspecified)
system.caches.L2Cache_Controller.MT.L1_PUTX::total      6569463                       (Unspecified)
system.caches.L2Cache_Controller.MT.L2_Replacement |           2      2.02%      2.02% |           0      0.00%      2.02% |          13     13.13%     15.15% |          15     15.15%     30.30% |          17     17.17%     47.47% |          11     11.11%     58.59% |          29     29.29%     87.88% |          12     12.12%    100.00% (Unspecified)
system.caches.L2Cache_Controller.MT.L2_Replacement::total           99                       (Unspecified)
system.caches.L2Cache_Controller.MT.L2_Replacement_clean |        5268     12.62%     12.62% |        5394     12.92%     25.54% |        4622     11.07%     36.61% |        4920     11.78%     48.39% |        5082     12.17%     60.56% |        5672     13.58%     74.15% |        5239     12.55%     86.70% |        5555     13.30%    100.00% (Unspecified)
system.caches.L2Cache_Controller.MT.L2_Replacement_clean::total        41752                       (Unspecified)
system.caches.L2Cache_Controller.M_I.L1_GET_INSTR |          25     17.12%     17.12% |          31     21.23%     38.36% |           8      5.48%     43.84% |           6      4.11%     47.95% |          14      9.59%     57.53% |          18     12.33%     69.86% |          16     10.96%     80.82% |          28     19.18%    100.00% (Unspecified)
system.caches.L2Cache_Controller.M_I.L1_GET_INSTR::total          146                       (Unspecified)
system.caches.L2Cache_Controller.M_I.L1_GETS |           6      7.50%      7.50% |           6      7.50%     15.00% |           2      2.50%     17.50% |           2      2.50%     20.00% |           6      7.50%     27.50% |          22     27.50%     55.00% |          13     16.25%     71.25% |          23     28.75%    100.00% (Unspecified)
system.caches.L2Cache_Controller.M_I.L1_GETS::total           80                       (Unspecified)
system.caches.L2Cache_Controller.M_I.L1_GETX |          13     12.15%     12.15% |           7      6.54%     18.69% |           6      5.61%     24.30% |           7      6.54%     30.84% |          12     11.21%     42.06% |          13     12.15%     54.21% |          19     17.76%     71.96% |          30     28.04%    100.00% (Unspecified)
system.caches.L2Cache_Controller.M_I.L1_GETX::total          107                       (Unspecified)
system.caches.L2Cache_Controller.M_I.L1_PUTX_old |           0      0.00%      0.00% |           0      0.00%      0.00% |           0      0.00%      0.00% |           0      0.00%      0.00% |           0      0.00%      0.00% |           1    100.00%    100.00% |           0      0.00%    100.00% |           0      0.00%    100.00% (Unspecified)
system.caches.L2Cache_Controller.M_I.L1_PUTX_old::total            1                       (Unspecified)
system.caches.L2Cache_Controller.M_I.Mem_Ack |      829802     12.51%     12.51% |      829704     12.51%     25.01% |      827419     12.47%     37.49% |      828231     12.48%     49.97% |      828945     12.50%     62.47% |      831022     12.53%     74.99% |      828966     12.50%     87.49% |      830123     12.51%    100.00% (Unspecified)
system.caches.L2Cache_Controller.M_I.Mem_Ack::total      6634212                       (Unspecified)
system.caches.L2Cache_Controller.MT_I.WB_Data |           2      2.02%      2.02% |           0      0.00%      2.02% |          13     13.13%     15.15% |          15     15.15%     30.30% |          17     17.17%     47.47% |          11     11.11%     58.59% |          29     29.29%     87.88% |          12     12.12%    100.00% (Unspecified)
system.caches.L2Cache_Controller.MT_I.WB_Data::total           99                       (Unspecified)
system.caches.L2Cache_Controller.MCT_I.L1_PUTX_old |           2     13.33%     13.33% |           3     20.00%     33.33% |           0      0.00%     33.33% |           3     20.00%     53.33% |           1      6.67%     60.00% |           3     20.00%     80.00% |           2     13.33%     93.33% |           1      6.67%    100.00% (Unspecified)
system.caches.L2Cache_Controller.MCT_I.L1_PUTX_old::total           15                       (Unspecified)
system.caches.L2Cache_Controller.MCT_I.WB_Data |        1727     14.02%     14.02% |        1550     12.59%     26.61% |        1262     10.25%     36.86% |        1379     11.20%     48.06% |        1401     11.38%     59.43% |        1660     13.48%     72.91% |        1571     12.76%     85.67% |        1765     14.33%    100.00% (Unspecified)
system.caches.L2Cache_Controller.MCT_I.WB_Data::total        12315                       (Unspecified)
system.caches.L2Cache_Controller.MCT_I.WB_Data_clean |           2     18.18%     18.18% |           2     18.18%     36.36% |           0      0.00%     36.36% |           3     27.27%     63.64% |           0      0.00%     63.64% |           2     18.18%     81.82% |           1      9.09%     90.91% |           1      9.09%    100.00% (Unspecified)
system.caches.L2Cache_Controller.MCT_I.WB_Data_clean::total           11                       (Unspecified)
system.caches.L2Cache_Controller.MCT_I.Ack_all |        3539     12.03%     12.03% |        3842     13.06%     25.08% |        3360     11.42%     36.50% |        3538     12.02%     48.53% |        3681     12.51%     61.03% |        4010     13.63%     74.66% |        3667     12.46%     87.12% |        3789     12.88%    100.00% (Unspecified)
system.caches.L2Cache_Controller.MCT_I.Ack_all::total        29426                       (Unspecified)
system.caches.L2Cache_Controller.I_I.L1_GET_INSTR |           1     33.33%     33.33% |           1     33.33%     66.67% |           0      0.00%     66.67% |           0      0.00%     66.67% |           1     33.33%    100.00% |           0      0.00%    100.00% |           0      0.00%    100.00% |           0      0.00%    100.00% (Unspecified)
system.caches.L2Cache_Controller.I_I.L1_GET_INSTR::total            3                       (Unspecified)
system.caches.L2Cache_Controller.I_I.Ack |       16400     14.99%     14.99% |       14445     13.21%     28.20% |       14247     13.03%     41.23% |       10672      9.76%     50.98% |       13301     12.16%     63.14% |       12982     11.87%     75.01% |       12428     11.36%     86.37% |       14904     13.63%    100.00% (Unspecified)
system.caches.L2Cache_Controller.I_I.Ack::total       109379                       (Unspecified)
system.caches.L2Cache_Controller.I_I.Ack_all |        2981     14.33%     14.33% |        2793     13.43%     27.76% |        2727     13.11%     40.88% |        2145     10.31%     51.19% |        2499     12.02%     63.21% |        2432     11.69%     74.90% |        2376     11.42%     86.32% |        2844     13.68%    100.00% (Unspecified)
system.caches.L2Cache_Controller.I_I.Ack_all::total        20797                       (Unspecified)
system.caches.L2Cache_Controller.S_I.Ack |         639     42.21%     42.21% |         285     18.82%     61.03% |          71      4.69%     65.72% |          87      5.75%     71.47% |          34      2.25%     73.71% |           3      0.20%     73.91% |         387     25.56%     99.47% |           8      0.53%    100.00% (Unspecified)
system.caches.L2Cache_Controller.S_I.Ack::total         1514                       (Unspecified)
system.caches.L2Cache_Controller.S_I.Ack_all |         102     34.58%     34.58% |          53     17.97%     52.54% |          13      4.41%     56.95% |          51     17.29%     74.24% |           6      2.03%     76.27% |           3      1.02%     77.29% |          65     22.03%     99.32% |           2      0.68%    100.00% (Unspecified)
system.caches.L2Cache_Controller.S_I.Ack_all::total          295                       (Unspecified)
system.caches.L2Cache_Controller.ISS.L1_GETS |         521     18.05%     18.05% |         360     12.47%     30.53% |         439     15.21%     45.74% |         295     10.22%     55.96% |         338     11.71%     67.67% |         283      9.81%     77.48% |         165      5.72%     83.19% |         485     16.81%    100.00% (Unspecified)
system.caches.L2Cache_Controller.ISS.L1_GETS::total         2886                       (Unspecified)
system.caches.L2Cache_Controller.ISS.L1_GETX |           0      0.00%      0.00% |           0      0.00%      0.00% |           0      0.00%      0.00% |           0      0.00%      0.00% |           0      0.00%      0.00% |           0      0.00%      0.00% |           3    100.00%    100.00% |           0      0.00%    100.00% (Unspecified)
system.caches.L2Cache_Controller.ISS.L1_GETX::total            3                       (Unspecified)
system.caches.L2Cache_Controller.ISS.Mem_Data |      572972     12.50%     12.50% |      573594     12.51%     25.01% |      572376     12.48%     37.49% |      573027     12.50%     49.99% |      572995     12.50%     62.48% |      573850     12.52%     75.00% |      573098     12.50%     87.50% |      573143     12.50%    100.00% (Unspecified)
system.caches.L2Cache_Controller.ISS.Mem_Data::total      4585055                       (Unspecified)
system.caches.L2Cache_Controller.IS.L1_GET_INSTR |        3964     13.26%     13.26% |        4269     14.28%     27.55% |        3502     11.72%     39.26% |        3032     10.14%     49.41% |        3957     13.24%     62.65% |        4074     13.63%     76.28% |        3604     12.06%     88.34% |        3485     11.66%    100.00% (Unspecified)
system.caches.L2Cache_Controller.IS.L1_GET_INSTR::total        29887                       (Unspecified)
system.caches.L2Cache_Controller.IS.L1_GETS |         775     17.48%     17.48% |         641     14.46%     31.94% |         677     15.27%     47.20% |         600     13.53%     60.74% |         498     11.23%     71.97% |         575     12.97%     84.93% |         226      5.10%     90.03% |         442      9.97%    100.00% (Unspecified)
system.caches.L2Cache_Controller.IS.L1_GETS::total         4434                       (Unspecified)
system.caches.L2Cache_Controller.IS.Mem_Data |        2516     13.78%     13.78% |        2488     13.62%     27.40% |        2394     13.11%     40.51% |        1852     10.14%     50.65% |        2278     12.47%     63.12% |        2151     11.78%     74.90% |        2012     11.02%     85.91% |        2573     14.09%    100.00% (Unspecified)
system.caches.L2Cache_Controller.IS.Mem_Data::total        18264                       (Unspecified)
system.caches.L2Cache_Controller.IM.L1_GETS |           0      0.00%      0.00% |           0      0.00%      0.00% |           0      0.00%      0.00% |           0      0.00%      0.00% |           0      0.00%      0.00% |           0      0.00%      0.00% |           2    100.00%    100.00% |           0      0.00%    100.00% (Unspecified)
system.caches.L2Cache_Controller.IM.L1_GETS::total            2                       (Unspecified)
system.caches.L2Cache_Controller.IM.L1_GETX |           0      0.00%      0.00% |           0      0.00%      0.00% |           1      3.33%      3.33% |           0      0.00%      3.33% |          28     93.33%     96.67% |           0      0.00%     96.67% |           1      3.33%    100.00% |           0      0.00%    100.00% (Unspecified)
system.caches.L2Cache_Controller.IM.L1_GETX::total           30                       (Unspecified)
system.caches.L2Cache_Controller.IM.Mem_Data |      254313     12.52%     12.52% |      253620     12.49%     25.01% |      252649     12.44%     37.45% |      253352     12.47%     49.93% |      253672     12.49%     62.42% |      255021     12.56%     74.97% |      253855     12.50%     87.47% |      254406     12.53%    100.00% (Unspecified)
system.caches.L2Cache_Controller.IM.Mem_Data::total      2030888                       (Unspecified)
system.caches.L2Cache_Controller.SS_MB.L1_GETS |           0      0.00%      0.00% |           0      0.00%      0.00% |           0      0.00%      0.00% |          42      5.93%      5.93% |          32      4.52%     10.45% |           0      0.00%     10.45% |         634     89.55%    100.00% |           0      0.00%    100.00% (Unspecified)
system.caches.L2Cache_Controller.SS_MB.L1_GETS::total          708                       (Unspecified)
system.caches.L2Cache_Controller.SS_MB.Exclusive_Unblock |          45      8.18%      8.18% |          42      7.64%     15.82% |          50      9.09%     24.91% |          13      2.36%     27.27% |          51      9.27%     36.55% |          18      3.27%     39.82% |         313     56.91%     96.73% |          18      3.27%    100.00% (Unspecified)
system.caches.L2Cache_Controller.SS_MB.Exclusive_Unblock::total          550                       (Unspecified)
system.caches.L2Cache_Controller.MT_MB.L1_GETS |           2      8.00%      8.00% |           5     20.00%     28.00% |           6     24.00%     52.00% |           3     12.00%     64.00% |           0      0.00%     64.00% |           0      0.00%     64.00% |           2      8.00%     72.00% |           7     28.00%    100.00% (Unspecified)
system.caches.L2Cache_Controller.MT_MB.L1_GETS::total           25                       (Unspecified)
system.caches.L2Cache_Controller.MT_MB.L1_GETX |           0      0.00%      0.00% |           7     11.29%     11.29% |           1      1.61%     12.90% |           0      0.00%     12.90% |          54     87.10%    100.00% |           0      0.00%    100.00% |           0      0.00%    100.00% |           0      0.00%    100.00% (Unspecified)
system.caches.L2Cache_Controller.MT_MB.L1_GETX::total           62                       (Unspecified)
system.caches.L2Cache_Controller.MT_MB.Exclusive_Unblock |      829703     12.50%     12.50% |      829692     12.50%     25.01% |      827474     12.47%     37.47% |      828929     12.49%     49.97% |      829216     12.50%     62.46% |      831625     12.53%     74.99% |      829419     12.50%     87.49% |      830166     12.51%    100.00% (Unspecified)
system.caches.L2Cache_Controller.MT_MB.Exclusive_Unblock::total      6636224                       (Unspecified)
system.caches.L2Cache_Controller.MT_IIB.L1_GET_INSTR |          18     25.35%     25.35% |          20     28.17%     53.52% |           8     11.27%     64.79% |           0      0.00%     64.79% |           4      5.63%     70.42% |           8     11.27%     81.69% |           9     12.68%     94.37% |           4      5.63%    100.00% (Unspecified)
system.caches.L2Cache_Controller.MT_IIB.L1_GET_INSTR::total           71                       (Unspecified)
system.caches.L2Cache_Controller.MT_IIB.L1_GETS |          91      7.62%      7.62% |         158     13.23%     20.85% |          57      4.77%     25.63% |          40      3.35%     28.98% |          37      3.10%     32.08% |          35      2.93%     35.01% |         731     61.22%     96.23% |          45      3.77%    100.00% (Unspecified)
system.caches.L2Cache_Controller.MT_IIB.L1_GETS::total         1194                       (Unspecified)
system.caches.L2Cache_Controller.MT_IIB.L1_PUTX |           0      0.00%      0.00% |           1    100.00%    100.00% |           0      0.00%    100.00% |           0      0.00%    100.00% |           0      0.00%    100.00% |           0      0.00%    100.00% |           0      0.00%    100.00% |           0      0.00%    100.00% (Unspecified)
system.caches.L2Cache_Controller.MT_IIB.L1_PUTX::total            1                       (Unspecified)
system.caches.L2Cache_Controller.MT_IIB.WB_Data |         116     16.79%     16.79% |          60      8.68%     25.47% |          46      6.66%     32.13% |          39      5.64%     37.77% |          50      7.24%     45.01% |          19      2.75%     47.76% |         342     49.49%     97.25% |          19      2.75%    100.00% (Unspecified)
system.caches.L2Cache_Controller.MT_IIB.WB_Data::total          691                       (Unspecified)
system.caches.L2Cache_Controller.MT_IIB.WB_Data_clean |         571     17.99%     17.99% |         407     12.82%     30.81% |         404     12.73%     43.54% |         356     11.22%     54.76% |         293      9.23%     63.99% |         340     10.71%     74.70% |         460     14.49%     89.19% |         343     10.81%    100.00% (Unspecified)
system.caches.L2Cache_Controller.MT_IIB.WB_Data_clean::total         3174                       (Unspecified)
system.caches.L2Cache_Controller.MT_IIB.Unblock |           2      5.13%      5.13% |           0      0.00%      5.13% |          15     38.46%     43.59% |          17     43.59%     87.18% |           0      0.00%     87.18% |           0      0.00%     87.18% |           5     12.82%    100.00% |           0      0.00%    100.00% (Unspecified)
system.caches.L2Cache_Controller.MT_IIB.Unblock::total           39                       (Unspecified)
system.caches.L2Cache_Controller.MT_IB.WB_Data |           2      5.26%      5.26% |           0      0.00%      5.26% |          15     39.47%     44.74% |          16     42.11%     86.84% |           0      0.00%     86.84% |           0      0.00%     86.84% |           5     13.16%    100.00% |           0      0.00%    100.00% (Unspecified)
system.caches.L2Cache_Controller.MT_IB.WB_Data::total           38                       (Unspecified)
system.caches.L2Cache_Controller.MT_IB.WB_Data_clean |           0      0.00%      0.00% |           0      0.00%      0.00% |           0      0.00%      0.00% |           1    100.00%    100.00% |           0      0.00%    100.00% |           0      0.00%    100.00% |           0      0.00%    100.00% |           0      0.00%    100.00% (Unspecified)
system.caches.L2Cache_Controller.MT_IB.WB_Data_clean::total            1                       (Unspecified)
system.caches.L2Cache_Controller.MT_SB.L1_GET_INSTR |           2     14.29%     14.29% |           3     21.43%     35.71% |           0      0.00%     35.71% |           0      0.00%     35.71% |           1      7.14%     42.86% |           3     21.43%     64.29% |           3     21.43%     85.71% |           2     14.29%    100.00% (Unspecified)
system.caches.L2Cache_Controller.MT_SB.L1_GET_INSTR::total           14                       (Unspecified)
system.caches.L2Cache_Controller.MT_SB.L1_GETS |          11     36.67%     36.67% |           7     23.33%     60.00% |           1      3.33%     63.33% |           2      6.67%     70.00% |           1      3.33%     73.33% |           2      6.67%     80.00% |           3     10.00%     90.00% |           3     10.00%    100.00% (Unspecified)
system.caches.L2Cache_Controller.MT_SB.L1_GETS::total           30                       (Unspecified)
system.caches.L2Cache_Controller.MT_SB.L1_UPGRADE |           0      0.00%      0.00% |           0      0.00%      0.00% |           0      0.00%      0.00% |           0      0.00%      0.00% |           0      0.00%      0.00% |           0      0.00%      0.00% |          91    100.00%    100.00% |           0      0.00%    100.00% (Unspecified)
system.caches.L2Cache_Controller.MT_SB.L1_UPGRADE::total           91                       (Unspecified)
system.caches.L2Cache_Controller.MT_SB.Unblock |         687     17.77%     17.77% |         467     12.08%     29.86% |         450     11.64%     41.50% |         395     10.22%     51.72% |         343      8.87%     60.60% |         359      9.29%     69.88% |         802     20.75%     90.63% |         362      9.37%    100.00% (Unspecified)
system.caches.L2Cache_Controller.MT_SB.Unblock::total         3865                       (Unspecified)
system.caches.RequestType.LD.latency_hist_seqr::bucket_size         1024                       (Unspecified)
system.caches.RequestType.LD.latency_hist_seqr::max_bucket        10239                       (Unspecified)
system.caches.RequestType.LD.latency_hist_seqr::samples     69672364                       (Unspecified)
system.caches.RequestType.LD.latency_hist_seqr::mean    39.755673                       (Unspecified)
system.caches.RequestType.LD.latency_hist_seqr::gmean     1.517489                       (Unspecified)
system.caches.RequestType.LD.latency_hist_seqr::stdev   167.293685                       (Unspecified)
system.caches.RequestType.LD.latency_hist_seqr |    69438025     99.66%     99.66% |      165647      0.24%     99.90% |       67052      0.10%    100.00% |        1617      0.00%    100.00% |          22      0.00%    100.00% |           1      0.00%    100.00% |           0      0.00%    100.00% |           0      0.00%    100.00% |           0      0.00%    100.00% |           0      0.00%    100.00% (Unspecified)
system.caches.RequestType.LD.latency_hist_seqr::total     69672364                       (Unspecified)
system.caches.RequestType.LD.hit_latency_hist_seqr::bucket_size            1                       (Unspecified)
system.caches.RequestType.LD.hit_latency_hist_seqr::max_bucket            9                       (Unspecified)
system.caches.RequestType.LD.hit_latency_hist_seqr::samples     65026094                       (Unspecified)
system.caches.RequestType.LD.hit_latency_hist_seqr::mean     1.000780                       (Unspecified)
system.caches.RequestType.LD.hit_latency_hist_seqr::gmean     1.000541                       (Unspecified)
system.caches.RequestType.LD.hit_latency_hist_seqr::stdev     0.027913                       (Unspecified)
system.caches.RequestType.LD.hit_latency_hist_seqr |           0      0.00%      0.00% |    64975390     99.92%     99.92% |       50704      0.08%    100.00% |           0      0.00%    100.00% |           0      0.00%    100.00% |           0      0.00%    100.00% |           0      0.00%    100.00% |           0      0.00%    100.00% |           0      0.00%    100.00% |           0      0.00%    100.00% (Unspecified)
system.caches.RequestType.LD.hit_latency_hist_seqr::total     65026094                       (Unspecified)
system.caches.RequestType.LD.miss_latency_hist_seqr::bucket_size         1024                       (Unspecified)
system.caches.RequestType.LD.miss_latency_hist_seqr::max_bucket        10239                       (Unspecified)
system.caches.RequestType.LD.miss_latency_hist_seqr::samples      4646270                       (Unspecified)
system.caches.RequestType.LD.miss_latency_hist_seqr::mean   582.143294                       (Unspecified)
system.caches.RequestType.LD.miss_latency_hist_seqr::gmean   516.123668                       (Unspecified)
system.caches.RequestType.LD.miss_latency_hist_seqr::stdev   323.222105                       (Unspecified)
system.caches.RequestType.LD.miss_latency_hist_seqr |     4411931     94.96%     94.96% |      165647      3.57%     98.52% |       67052      1.44%     99.96% |        1617      0.03%    100.00% |          22      0.00%    100.00% |           1      0.00%    100.00% |           0      0.00%    100.00% |           0      0.00%    100.00% |           0      0.00%    100.00% |           0      0.00%    100.00% (Unspecified)
system.caches.RequestType.LD.miss_latency_hist_seqr::total      4646270                       (Unspecified)
system.caches.RequestType.ST.latency_hist_seqr::bucket_size          512                       (Unspecified)
system.caches.RequestType.ST.latency_hist_seqr::max_bucket         5119                       (Unspecified)
system.caches.RequestType.ST.latency_hist_seqr::samples     69477845                       (Unspecified)
system.caches.RequestType.ST.latency_hist_seqr::mean    16.207943                       (Unspecified)
system.caches.RequestType.ST.latency_hist_seqr::gmean     1.205179                       (Unspecified)
system.caches.RequestType.ST.latency_hist_seqr::stdev   102.910168                       (Unspecified)
system.caches.RequestType.ST.latency_hist_seqr |    68668578     98.84%     98.84% |      735403      1.06%     99.89% |       44146      0.06%     99.96% |        6014      0.01%     99.97% |       14853      0.02%     99.99% |        8348      0.01%    100.00% |         458      0.00%    100.00% |          41      0.00%    100.00% |           3      0.00%    100.00% |           1      0.00%    100.00% (Unspecified)
system.caches.RequestType.ST.latency_hist_seqr::total     69477845                       (Unspecified)
system.caches.RequestType.ST.hit_latency_hist_seqr::bucket_size          256                       (Unspecified)
system.caches.RequestType.ST.hit_latency_hist_seqr::max_bucket         2559                       (Unspecified)
system.caches.RequestType.ST.hit_latency_hist_seqr::samples     67452371                       (Unspecified)
system.caches.RequestType.ST.hit_latency_hist_seqr::mean     1.012044                       (Unspecified)
system.caches.RequestType.ST.hit_latency_hist_seqr::gmean     1.008168                       (Unspecified)
system.caches.RequestType.ST.hit_latency_hist_seqr::stdev     0.417687                       (Unspecified)
system.caches.RequestType.ST.hit_latency_hist_seqr |    67452341    100.00%    100.00% |          23      0.00%    100.00% |           6      0.00%    100.00% |           0      0.00%    100.00% |           0      0.00%    100.00% |           0      0.00%    100.00% |           0      0.00%    100.00% |           0      0.00%    100.00% |           1      0.00%    100.00% |           0      0.00%    100.00% (Unspecified)
system.caches.RequestType.ST.hit_latency_hist_seqr::total     67452371                       (Unspecified)
system.caches.RequestType.ST.miss_latency_hist_seqr::bucket_size          512                       (Unspecified)
system.caches.RequestType.ST.miss_latency_hist_seqr::max_bucket         5119                       (Unspecified)
system.caches.RequestType.ST.miss_latency_hist_seqr::samples      2025474                       (Unspecified)
system.caches.RequestType.ST.miss_latency_hist_seqr::mean   522.262030                       (Unspecified)
system.caches.RequestType.ST.miss_latency_hist_seqr::gmean   459.811237                       (Unspecified)
system.caches.RequestType.ST.miss_latency_hist_seqr::stdev   315.419019                       (Unspecified)
[...]
system.o3Cpu7.iew.predictedNotTakenIncorrect         2983                       # Number of branches that were predicted not taken incorrectly (Count)
system.o3Cpu7.iew.branchMispredicts             10946                       # Number of branch mispredicts detected at execute (Count)
system.o3Cpu7.iew.instsToCommit              65034216                       # Cumulative count of insts sent to commit (Count)
system.o3Cpu7.iew.writebackCount             65032664                       # Cumulative count of insts written-back (Count)
system.o3Cpu7.iew.producerInst               40452839                       # Number of instructions producing a value (Count)
system.o3Cpu7.iew.consumerInst               59716687                       # Number of instructions consuming a value (Count)
system.o3Cpu7.iew.wbRate                     0.255928                       # Insts written-back per cycle ((Count/Cycle))
system.o3Cpu7.iew.wbFanout                   0.677413                       # Average fanout of values written-back ((Count/Count))
system.o3Cpu7.interrupts.clk_domain.clock         3200                       # Clock period in ticks (Tick)
system.o3Cpu7.lsq0.forwLoads                   138643                       # Number of loads that had data forwarded from stores (Count)
system.o3Cpu7.lsq0.squashedLoads                14840                       # Number of loads squashed (Count)
system.o3Cpu7.lsq0.ignoredResponses                 7                       # Number of memory responses ignored because the instruction is squashed (Count)
system.o3Cpu7.lsq0.memOrderViolation              768                       # Number of memory ordering violations (Count)
system.o3Cpu7.lsq0.squashedStores               14733                       # Number of stores squashed (Count)
system.o3Cpu7.lsq0.rescheduledLoads                47                       # Number of loads that were rescheduled (Count)
system.o3Cpu7.lsq0.blockedByCache                   7                       # Number of times an access to memory failed due to the cache being blocked (Count)
system.o3Cpu7.lsq0.loadToUse::samples        12727935                       # Distribution of cycle latency between the first time a load is issued and its completion (Unspecified)
system.o3Cpu7.lsq0.loadToUse::mean         101.177921                       # Distribution of cycle latency between the first time a load is issued and its completion (Unspecified)
system.o3Cpu7.lsq0.loadToUse::stdev        251.350934                       # Distribution of cycle latency between the first time a load is issued and its completion (Unspecified)
system.o3Cpu7.lsq0.loadToUse::0-9            10289678     80.84%     80.84% # Distribution of cycle latency between the first time a load is issued and its completion (Unspecified)
system.o3Cpu7.lsq0.loadToUse::10-19             36192      0.28%     81.13% # Distribution of cycle latency between the first time a load is issued and its completion (Unspecified)
system.o3Cpu7.lsq0.loadToUse::20-29             29992      0.24%     81.36% # Distribution of cycle latency between the first time a load is issued and its completion (Unspecified)
system.o3Cpu7.lsq0.loadToUse::30-39             20573      0.16%     81.52% # Distribution of cycle latency between the first time a load is issued and its completion (Unspecified)
system.o3Cpu7.lsq0.loadToUse::40-49             18474      0.15%     81.67% # Distribution of cycle latency between the first time a load is issued and its completion (Unspecified)
system.o3Cpu7.lsq0.loadToUse::50-59             19178      0.15%     81.82% # Distribution of cycle latency between the first time a load is issued and its completion (Unspecified)
system.o3Cpu7.lsq0.loadToUse::60-69             17353      0.14%     81.96% # Distribution of cycle latency between the first time a load is issued and its completion (Unspecified)
system.o3Cpu7.lsq0.loadToUse::70-79             18456      0.15%     82.10% # Distribution of cycle latency between the first time a load is issued and its completion (Unspecified)
system.o3Cpu7.lsq0.loadToUse::80-89             18308      0.14%     82.25% # Distribution of cycle latency between the first time a load is issued and its completion (Unspecified)
system.o3Cpu7.lsq0.loadToUse::90-99             15486      0.12%     82.37% # Distribution of cycle latency between the first time a load is issued and its completion (Unspecified)
system.o3Cpu7.lsq0.loadToUse::100-109           15566      0.12%     82.49% # Distribution of cycle latency between the first time a load is issued and its completion (Unspecified)
system.o3Cpu7.lsq0.loadToUse::110-119           14137      0.11%     82.60% # Distribution of cycle latency between the first time a load is issued and its completion (Unspecified)
system.o3Cpu7.lsq0.loadToUse::120-129           13124      0.10%     82.70% # Distribution of cycle latency between the first time a load is issued and its completion (Unspecified)
system.o3Cpu7.lsq0.loadToUse::130-139           13654      0.11%     82.81% # Distribution of cycle latency between the first time a load is issued and its completion (Unspecified)
system.o3Cpu7.lsq0.loadToUse::140-149           10111      0.08%     82.89% # Distribution of cycle latency between the first time a load is issued and its completion (Unspecified)
system.o3Cpu7.lsq0.loadToUse::150-159           11102      0.09%     82.98% # Distribution of cycle latency between the first time a load is issued and its completion (Unspecified)
system.o3Cpu7.lsq0.loadToUse::160-169           10002      0.08%     83.06% # Distribution of cycle latency between the first time a load is issued and its completion (Unspecified)
system.o3Cpu7.lsq0.loadToUse::170-179            9083      0.07%     83.13% # Distribution of cycle latency between the first time a load is issued and its completion (Unspecified)
system.o3Cpu7.lsq0.loadToUse::180-189           10005      0.08%     83.21% # Distribution of cycle latency between the first time a load is issued and its completion (Unspecified)
system.o3Cpu7.lsq0.loadToUse::190-199            8993      0.07%     83.28% # Distribution of cycle latency between the first time a load is issued and its completion (Unspecified)
system.o3Cpu7.lsq0.loadToUse::200-209           10385      0.08%     83.36% # Distribution of cycle latency between the first time a load is issued and its completion (Unspecified)
system.o3Cpu7.lsq0.loadToUse::210-219           17651      0.14%     83.50% # Distribution of cycle latency between the first time a load is issued and its completion (Unspecified)
system.o3Cpu7.lsq0.loadToUse::220-229           11655      0.09%     83.59% # Distribution of cycle latency between the first time a load is issued and its completion (Unspecified)
system.o3Cpu7.lsq0.loadToUse::230-239           12186      0.10%     83.68% # Distribution of cycle latency between the first time a load is issued and its completion (Unspecified)
system.o3Cpu7.lsq0.loadToUse::240-249           10976      0.09%     83.77% # Distribution of cycle latency between the first time a load is issued and its completion (Unspecified)
system.o3Cpu7.lsq0.loadToUse::250-259           12055      0.09%     83.87% # Distribution of cycle latency between the first time a load is issued and its completion (Unspecified)
system.o3Cpu7.lsq0.loadToUse::260-269           12784      0.10%     83.97% # Distribution of cycle latency between the first time a load is issued and its completion (Unspecified)
system.o3Cpu7.lsq0.loadToUse::270-279           12597      0.10%     84.07% # Distribution of cycle latency between the first time a load is issued and its completion (Unspecified)
system.o3Cpu7.lsq0.loadToUse::280-289           15631      0.12%     84.19% # Distribution of cycle latency between the first time a load is issued and its completion (Unspecified)
system.o3Cpu7.lsq0.loadToUse::290-299           15218      0.12%     84.31% # Distribution of cycle latency between the first time a load is issued and its completion (Unspecified)
system.o3Cpu7.lsq0.loadToUse::overflows       1997330     15.69%    100.00% # Distribution of cycle latency between the first time a load is issued and its completion (Unspecified)
system.o3Cpu7.lsq0.loadToUse::min_value             2                       # Distribution of cycle latency between the first time a load is issued and its completion (Unspecified)
system.o3Cpu7.lsq0.loadToUse::max_value          4668                       # Distribution of cycle latency between the first time a load is issued and its completion (Unspecified)
system.o3Cpu7.lsq0.loadToUse::total          12727935                       # Distribution of cycle latency between the first time a load is issued and its completion (Unspecified)
system.o3Cpu7.mmu.dtb.rdAccesses             12741631                       # TLB accesses on read requests (Count)
system.o3Cpu7.mmu.dtb.wrAccesses              8767245                       # TLB accesses on write requests (Count)
system.o3Cpu7.mmu.dtb.rdMisses                   2952                       # TLB misses on read requests (Count)
system.o3Cpu7.mmu.dtb.wrMisses                   1275                       # TLB misses on write requests (Count)
system.o3Cpu7.mmu.dtb.walker.power_state.pwrStateResidencyTicks::UNDEFINED  52138642200                       # Cumulative time (in ticks) in various power states (Tick)
system.o3Cpu7.mmu.itb.rdAccesses                    0                       # TLB accesses on read requests (Count)
system.o3Cpu7.mmu.itb.wrAccesses              5180774                       # TLB accesses on write requests (Count)
system.o3Cpu7.mmu.itb.rdMisses                      0                       # TLB misses on read requests (Count)
system.o3Cpu7.mmu.itb.wrMisses                    187                       # TLB misses on write requests (Count)
system.o3Cpu7.mmu.itb.walker.power_state.pwrStateResidencyTicks::UNDEFINED  52138642200                       # Cumulative time (in ticks) in various power states (Tick)
system.o3Cpu7.power_state.numTransitions            6                       # Number of power state transitions (Count)
system.o3Cpu7.power_state.ticksClkGated::samples            3                       # Distribution of time spent in the clock gated state (Tick)
system.o3Cpu7.power_state.ticksClkGated::mean 101824466.666667                       # Distribution of time spent in the clock gated state (Tick)
system.o3Cpu7.power_state.ticksClkGated::stdev 92711748.945284                       # Distribution of time spent in the clock gated state (Tick)
system.o3Cpu7.power_state.ticksClkGated::1000-5e+10            3    100.00%    100.00% # Distribution of time spent in the clock gated state (Tick)
system.o3Cpu7.power_state.ticksClkGated::min_value     30536400                       # Distribution of time spent in the clock gated state (Tick)
system.o3Cpu7.power_state.ticksClkGated::max_value    206634800                       # Distribution of time spent in the clock gated state (Tick)
system.o3Cpu7.power_state.ticksClkGated::total            3                       # Distribution of time spent in the clock gated state (Tick)
system.o3Cpu7.power_state.pwrStateResidencyTicks::ON  49487064800                       # Cumulative time (in ticks) in various power states (Tick)
system.o3Cpu7.power_state.pwrStateResidencyTicks::CLK_GATED    305473400                       # Cumulative time (in ticks) in various power states (Tick)
system.o3Cpu7.power_state.pwrStateResidencyTicks::OFF   2346104000                       # Cumulative time (in ticks) in various power states (Tick)
system.o3Cpu7.rename.squashCycles               11591                       # Number of cycles rename is squashing (Cycle)
system.o3Cpu7.rename.idleCycles               5891032                       # Number of cycles rename is idle (Cycle)
system.o3Cpu7.rename.blockCycles            106102042                       # Number of cycles rename is blocking (Cycle)
system.o3Cpu7.rename.serializeStallCycles       405284                       # count of cycles rename stalled for serializing inst (Cycle)
system.o3Cpu7.rename.runCycles               15869515                       # Number of cycles rename is running (Cycle)
system.o3Cpu7.rename.unblockCycles          125109227                       # Number of cycles rename is unblocking (Cycle)
system.o3Cpu7.rename.renamedInsts            65133901                       # Number of instructions processed by rename (Count)
system.o3Cpu7.rename.ROBFullEvents              78316                       # Number of times rename has blocked due to ROB full (Count)
system.o3Cpu7.rename.IQFullEvents            17121619                       # Number of times rename has blocked due to IQ full (Count)
system.o3Cpu7.rename.LQFullEvents            51687230                       # Number of times rename has blocked due to LQ full (Count)
system.o3Cpu7.rename.SQFullEvents            71403126                       # Number of times rename has blocked due to SQ full (Count)
system.o3Cpu7.rename.fullRegistersEvents            2                       # Number of times there has been no free registers (Count)
system.o3Cpu7.rename.renamedOperands         86555150                       # Number of destination operands rename has renamed (Count)
system.o3Cpu7.rename.lookups                199530210                       # Number of register rename lookups that rename has made (Count)
system.o3Cpu7.rename.intLookups              49573505                       # Number of integer rename lookups (Count)
system.o3Cpu7.rename.fpLookups               52693664                       # Number of floating rename lookups (Count)
system.o3Cpu7.rename.committedMaps           86236034                       # Number of HB maps that are committed (Count)
system.o3Cpu7.rename.undoneMaps                319116                       # Number of HB maps that are undone due to squashing (Count)
system.o3Cpu7.rename.serializing                 2390                       # count of serializing insts renamed (Count)
system.o3Cpu7.rename.tempSerializing             2451                       # count of temporary serializing insts renamed (Count)
system.o3Cpu7.rename.skidInsts                9538770                       # count of insts added to the skid buffer (Count)
system.o3Cpu7.rob.reads                     306439186                       # The number of ROB reads (Count)
system.o3Cpu7.rob.writes                    130219374                       # The number of ROB writes (Count)
system.o3Cpu7.thread_0.numInsts              39074056                       # Number of Instructions committed (Count)
system.o3Cpu7.thread_0.numOps                64969603                       # Number of Ops committed (Count)
system.o3Cpu7.thread_0.numMemRefs                   0                       # Number of Memory References (Count)
system.pc.bad_addr.power_state.pwrStateResidencyTicks::UNDEFINED  52138642200                       # Cumulative time (in ticks) in various power states (Tick)
system.pc.com_1.power_state.pwrStateResidencyTicks::UNDEFINED  52138642200                       # Cumulative time (in ticks) in various power states (Tick)
system.pc.default_bus.power_state.pwrStateResidencyTicks::UNDEFINED  52138642200                       # Cumulative time (in ticks) in various power states (Tick)
system.pc.empty_isa.power_state.pwrStateResidencyTicks::UNDEFINED  52138642200                       # Cumulative time (in ticks) in various power states (Tick)
system.pc.fake_com_2.power_state.pwrStateResidencyTicks::UNDEFINED  52138642200                       # Cumulative time (in ticks) in various power states (Tick)
system.pc.fake_com_3.power_state.pwrStateResidencyTicks::UNDEFINED  52138642200                       # Cumulative time (in ticks) in various power states (Tick)
system.pc.fake_com_4.power_state.pwrStateResidencyTicks::UNDEFINED  52138642200                       # Cumulative time (in ticks) in various power states (Tick)
system.pc.fake_floppy.power_state.pwrStateResidencyTicks::UNDEFINED  52138642200                       # Cumulative time (in ticks) in various power states (Tick)
system.pc.pci_host.power_state.pwrStateResidencyTicks::UNDEFINED  52138642200                       # Cumulative time (in ticks) in various power states (Tick)
system.pc.south_bridge.cmos.power_state.pwrStateResidencyTicks::UNDEFINED  52138642200                       # Cumulative time (in ticks) in various power states (Tick)
system.pc.south_bridge.dma1.power_state.pwrStateResidencyTicks::UNDEFINED  52138642200                       # Cumulative time (in ticks) in various power states (Tick)
system.pc.south_bridge.ide.disks0.IdeDisk.dmaReadFullPages            0                       # Number of full page size DMA reads (not PRD). (Count)
system.pc.south_bridge.ide.disks0.IdeDisk.dmaReadBytes            0                       # Number of bytes transfered via DMA reads (not PRD). (Byte)
system.pc.south_bridge.ide.disks0.IdeDisk.dmaReadTxs            0                       # Number of DMA read transactions (not PRD). (Count)
system.pc.south_bridge.ide.disks0.IdeDisk.dmaWriteFullPages            0                       # Number of full page size DMA writes. (Count)
system.pc.south_bridge.ide.disks0.IdeDisk.dmaWriteBytes            0                       # Number of bytes transfered via DMA writes. (Byte)
system.pc.south_bridge.ide.disks0.IdeDisk.dmaWriteTxs            0                       # Number of DMA write transactions. (Count)
system.pc.south_bridge.ide.disks1.IdeDisk.dmaReadFullPages            0                       # Number of full page size DMA reads (not PRD). (Count)
system.pc.south_bridge.ide.disks1.IdeDisk.dmaReadBytes            0                       # Number of bytes transfered via DMA reads (not PRD). (Byte)
system.pc.south_bridge.ide.disks1.IdeDisk.dmaReadTxs            0                       # Number of DMA read transactions (not PRD). (Count)
system.pc.south_bridge.ide.disks1.IdeDisk.dmaWriteFullPages            0                       # Number of full page size DMA writes. (Count)
system.pc.south_bridge.ide.disks1.IdeDisk.dmaWriteBytes            0                       # Number of bytes transfered via DMA writes. (Byte)
system.pc.south_bridge.ide.disks1.IdeDisk.dmaWriteTxs            0                       # Number of DMA write transactions. (Count)
system.pc.south_bridge.ide.power_state.pwrStateResidencyTicks::UNDEFINED  52138642200                       # Cumulative time (in ticks) in various power states (Tick)
system.pc.south_bridge.io_apic.power_state.pwrStateResidencyTicks::UNDEFINED  52138642200                       # Cumulative time (in ticks) in various power states (Tick)
system.pc.south_bridge.keyboard.power_state.pwrStateResidencyTicks::UNDEFINED  52138642200                       # Cumulative time (in ticks) in various power states (Tick)
system.pc.south_bridge.pic1.power_state.pwrStateResidencyTicks::UNDEFINED  52138642200                       # Cumulative time (in ticks) in various power states (Tick)
system.pc.south_bridge.pic2.power_state.pwrStateResidencyTicks::UNDEFINED  52138642200                       # Cumulative time (in ticks) in various power states (Tick)
system.pc.south_bridge.pit.power_state.pwrStateResidencyTicks::UNDEFINED  52138642200                       # Cumulative time (in ticks) in various power states (Tick)
system.pc.south_bridge.speaker.power_state.pwrStateResidencyTicks::UNDEFINED  52138642200                       # Cumulative time (in ticks) in various power states (Tick)
system.workload.inst.arm                            0                       # number of arm instructions executed (Count)
system.workload.inst.quiesce                        0                       # number of quiesce instructions executed (Count)

---------- End Simulation Statistics   ----------
