
---------- Begin Simulation Statistics ----------
simSeconds                                   0.077663                       # Number of seconds simulated (Second)
simTicks                                  77662710500                       # Number of ticks simulated (Tick)
finalTick                                163585664429200                       # Number of ticks from beginning of simulation (restored from checkpoints and never reset) (Tick)
simFreq                                  1000000000000                       # The number of ticks per simulated second ((Tick/Second))
hostSeconds                                   8481.18                       # Real time elapsed on the host (Second)
hostTickRate                                  9157064                       # The number of ticks simulated per host second (ticks/s) ((Tick/Second))
hostMemory                                   19925576                       # Number of bytes of host memory used (Byte)
simInsts                                    285123502                       # Number of instructions simulated (Count)
simOps                                      474430119                       # Number of ops (including micro ops) simulated (Count)
hostInstRate                                    33618                       # Simulator instruction rate (inst/s) ((Count/Second))
hostOpRate                                      55939                       # Simulator op (including micro ops) rate (op/s) ((Count/Second))
system.caches.delayHistogram::bucket_size          512                       # delay histogram for all message (Unspecified)
system.caches.delayHistogram::max_bucket         5119                       # delay histogram for all message (Unspecified)
system.caches.delayHistogram::samples        47170474                       # delay histogram for all message (Unspecified)
system.caches.delayHistogram::mean           0.496262                       # delay histogram for all message (Unspecified)
system.caches.delayHistogram::stdev          2.278071                       # delay histogram for all message (Unspecified)
system.caches.delayHistogram             |    47170454    100.00%    100.00% |           5      0.00%    100.00% |           6      0.00%    100.00% |           7      0.00%    100.00% |           0      0.00%    100.00% |           1      0.00%    100.00% |           0      0.00%    100.00% |           0      0.00%    100.00% |           1      0.00%    100.00% |           0      0.00%    100.00% # delay histogram for all message (Unspecified)
system.caches.delayHistogram::total          47170474                       # delay histogram for all message (Unspecified)
system.caches.m_outstandReqHistSeqr::bucket_size            2                       (Unspecified)
system.caches.m_outstandReqHistSeqr::max_bucket           19                       (Unspecified)
system.caches.m_outstandReqHistSeqr::samples    178047090                       (Unspecified)
system.caches.m_outstandReqHistSeqr::mean     2.453737                       (Unspecified)
system.caches.m_outstandReqHistSeqr::gmean     1.782856                       (Unspecified)
system.caches.m_outstandReqHistSeqr::stdev     2.430641                       (Unspecified)
system.caches.m_outstandReqHistSeqr      |    92952829     52.21%     52.21% |    52807562     29.66%     81.87% |    11943782      6.71%     88.57% |     8498909      4.77%     93.35% |     6882899      3.87%     97.21% |     3580740      2.01%     99.22% |     1318485      0.74%     99.97% |       61458      0.03%    100.00% |         426      0.00%    100.00% |           0      0.00%    100.00% (Unspecified)
system.caches.m_outstandReqHistSeqr::total    178047090                       (Unspecified)
system.caches.m_latencyHistSeqr::bucket_size         1024                       (Unspecified)
system.caches.m_latencyHistSeqr::max_bucket        10239                       (Unspecified)
system.caches.m_latencyHistSeqr::samples    178745600                       (Unspecified)
system.caches.m_latencyHistSeqr::mean       34.786797                       (Unspecified)
system.caches.m_latencyHistSeqr::gmean       1.291522                       (Unspecified)
system.caches.m_latencyHistSeqr::stdev     194.755063                       (Unspecified)
system.caches.m_latencyHistSeqr          |   176713794     98.86%     98.86% |     1789329      1.00%     99.86% |      225855      0.13%     99.99% |       15821      0.01%    100.00% |         751      0.00%    100.00% |          49      0.00%    100.00% |           1      0.00%    100.00% |           0      0.00%    100.00% |           0      0.00%    100.00% |           0      0.00%    100.00% (Unspecified)
system.caches.m_latencyHistSeqr::total      178745600                       (Unspecified)
system.caches.m_hitLatencyHistSeqr::bucket_size          256                       (Unspecified)
system.caches.m_hitLatencyHistSeqr::max_bucket         2559                       (Unspecified)
system.caches.m_hitLatencyHistSeqr::samples    171907826                       (Unspecified)
system.caches.m_hitLatencyHistSeqr::mean     1.007258                       (Unspecified)
system.caches.m_hitLatencyHistSeqr::gmean     1.003493                       (Unspecified)
system.caches.m_hitLatencyHistSeqr::stdev     1.388977                       (Unspecified)
system.caches.m_hitLatencyHistSeqr       |   171907327    100.00%    100.00% |          34      0.00%    100.00% |         358      0.00%    100.00% |          39      0.00%    100.00% |          33      0.00%    100.00% |          15      0.00%    100.00% |          12      0.00%    100.00% |           4      0.00%    100.00% |           4      0.00%    100.00% |           0      0.00%    100.00% (Unspecified)
system.caches.m_hitLatencyHistSeqr::total    171907826                       (Unspecified)
system.caches.m_missLatencyHistSeqr::bucket_size         1024                       (Unspecified)
system.caches.m_missLatencyHistSeqr::max_bucket        10239                       (Unspecified)
system.caches.m_missLatencyHistSeqr::samples      6837774                       (Unspecified)
system.caches.m_missLatencyHistSeqr::mean   884.034985                       (Unspecified)
system.caches.m_missLatencyHistSeqr::gmean   734.909962                       (Unspecified)
system.caches.m_missLatencyHistSeqr::stdev   491.481626                       (Unspecified)
system.caches.m_missLatencyHistSeqr      |     4806036     70.29%     70.29% |     1789265     26.17%     96.45% |      225851      3.30%     99.76% |       15821      0.23%     99.99% |         751      0.01%    100.00% |          49      0.00%    100.00% |           1      0.00%    100.00% |           0      0.00%    100.00% |           0      0.00%    100.00% |           0      0.00%    100.00% (Unspecified)
system.caches.m_missLatencyHistSeqr::total      6837774                       (Unspecified)
system.caches.delayVCHist.vnet_0::bucket_size          512                       # delay histogram for vnet_0 (Unspecified)
system.caches.delayVCHist.vnet_0::max_bucket         5119                       # delay histogram for vnet_0 (Unspecified)
system.caches.delayVCHist.vnet_0::samples     20077030                       # delay histogram for vnet_0 (Unspecified)
system.caches.delayVCHist.vnet_0::mean       1.120720                       # delay histogram for vnet_0 (Unspecified)
system.caches.delayVCHist.vnet_0::stdev      3.357782                       # delay histogram for vnet_0 (Unspecified)
system.caches.delayVCHist.vnet_0         |    20077010    100.00%    100.00% |           5      0.00%    100.00% |           6      0.00%    100.00% |           7      0.00%    100.00% |           0      0.00%    100.00% |           1      0.00%    100.00% |           0      0.00%    100.00% |           0      0.00%    100.00% |           1      0.00%    100.00% |           0      0.00%    100.00% # delay histogram for vnet_0 (Unspecified)
system.caches.delayVCHist.vnet_0::total      20077030                       # delay histogram for vnet_0 (Unspecified)
system.caches.delayVCHist.vnet_1::bucket_size            8                       # delay histogram for vnet_1 (Unspecified)
system.caches.delayVCHist.vnet_1::max_bucket           79                       # delay histogram for vnet_1 (Unspecified)
system.caches.delayVCHist.vnet_1::samples     26903749                       # delay histogram for vnet_1 (Unspecified)
system.caches.delayVCHist.vnet_1::mean       0.033754                       # delay histogram for vnet_1 (Unspecified)
system.caches.delayVCHist.vnet_1::stdev      0.422510                       # delay histogram for vnet_1 (Unspecified)
system.caches.delayVCHist.vnet_1         |    26892959     99.96%     99.96% |        9946      0.04%    100.00% |         680      0.00%    100.00% |         134      0.00%    100.00% |          26      0.00%    100.00% |           4      0.00%    100.00% |           0      0.00%    100.00% |           0      0.00%    100.00% |           0      0.00%    100.00% |           0      0.00%    100.00% # delay histogram for vnet_1 (Unspecified)
system.caches.delayVCHist.vnet_1::total      26903749                       # delay histogram for vnet_1 (Unspecified)
system.caches.delayVCHist.vnet_2::bucket_size            1                       # delay histogram for vnet_2 (Unspecified)
system.caches.delayVCHist.vnet_2::max_bucket            9                       # delay histogram for vnet_2 (Unspecified)
system.caches.delayVCHist.vnet_2::samples       189695                       # delay histogram for vnet_2 (Unspecified)
system.caches.delayVCHist.vnet_2::mean       0.000464                       # delay histogram for vnet_2 (Unspecified)
system.caches.delayVCHist.vnet_2::stdev      0.038417                       # delay histogram for vnet_2 (Unspecified)
system.caches.delayVCHist.vnet_2         |      189663     99.98%     99.98% |           0      0.00%     99.98% |          21      0.01%     99.99% |           0      0.00%     99.99% |          10      0.01%    100.00% |           0      0.00%    100.00% |           1      0.00%    100.00% |           0      0.00%    100.00% |           0      0.00%    100.00% |           0      0.00%    100.00% # delay histogram for vnet_2 (Unspecified)
system.caches.delayVCHist.vnet_2::total        189695                       # delay histogram for vnet_2 (Unspecified)
system.caches.L1Cache_Controller.Load    |     8156172     12.01%     12.01% |     8246144     12.14%     24.15% |     8389903     12.35%     36.50% |     8611039     12.68%     49.18% |     8643470     12.73%     61.90% |     8225086     12.11%     74.01% |     8799282     12.95%     86.97% |     8851982     13.03%    100.00% (Unspecified)
system.caches.L1Cache_Controller.Load::total     67923078                       (Unspecified)
system.caches.L1Cache_Controller.Ifetch  |     5043426     12.37%     12.37% |     4981668     12.22%     24.59% |     5016408     12.30%     36.89% |     5281540     12.95%     49.84% |     5170540     12.68%     62.52% |     4959647     12.16%     74.68% |     5149651     12.63%     87.31% |     5173005     12.69%    100.00% (Unspecified)
system.caches.L1Cache_Controller.Ifetch::total     40775885                       (Unspecified)
system.caches.L1Cache_Controller.Store   |     8731889     12.47%     12.47% |     8661430     12.37%     24.83% |     8685351     12.40%     37.23% |     8926681     12.74%     49.97% |     8803690     12.57%     62.54% |     8641654     12.34%     74.88% |     8794565     12.56%     87.43% |     8801390     12.57%    100.00% (Unspecified)
system.caches.L1Cache_Controller.Store::total     70046650                       (Unspecified)
system.caches.L1Cache_Controller.Inv     |       23876     12.86%     12.86% |       23120     12.45%     25.32% |       23627     12.73%     38.05% |       23181     12.49%     50.53% |       23407     12.61%     63.14% |       22922     12.35%     75.49% |       22225     11.97%     87.46% |       23271     12.54%    100.00% (Unspecified)
system.caches.L1Cache_Controller.Inv::total       185629                       (Unspecified)
system.caches.L1Cache_Controller.L1_Replacement |      850493     12.57%     12.57% |      842574     12.46%     25.03% |      843383     12.47%     37.50% |      850786     12.58%     50.08% |      844541     12.49%     62.57% |      843242     12.47%     75.03% |      844779     12.49%     87.52% |      843816     12.48%    100.00% (Unspecified)
system.caches.L1Cache_Controller.L1_Replacement::total      6763614                       (Unspecified)
system.caches.L1Cache_Controller.Fwd_GETX |          27     13.71%     13.71% |          33     16.75%     30.46% |          27     13.71%     44.16% |          20     10.15%     54.31% |          13      6.60%     60.91% |          24     12.18%     73.10% |          29     14.72%     87.82% |          24     12.18%    100.00% (Unspecified)
system.caches.L1Cache_Controller.Fwd_GETX::total          197                       (Unspecified)
system.caches.L1Cache_Controller.Fwd_GETS |        1430     37.38%     37.38% |         432     11.29%     48.67% |         292      7.63%     56.30% |         278      7.27%     63.57% |         525     13.72%     77.29% |         112      2.93%     80.21% |         310      8.10%     88.32% |         447     11.68%    100.00% (Unspecified)
system.caches.L1Cache_Controller.Fwd_GETS::total         3826                       (Unspecified)
system.caches.L1Cache_Controller.Fwd_GET_INSTR |          43    100.00%    100.00% |           0      0.00%    100.00% |           0      0.00%    100.00% |           0      0.00%    100.00% |           0      0.00%    100.00% |           0      0.00%    100.00% |           0      0.00%    100.00% |           0      0.00%    100.00% (Unspecified)
system.caches.L1Cache_Controller.Fwd_GET_INSTR::total           43                       (Unspecified)
system.caches.L1Cache_Controller.Data    |          66    100.00%    100.00% |           0      0.00%    100.00% |           0      0.00%    100.00% |           0      0.00%    100.00% |           0      0.00%    100.00% |           0      0.00%    100.00% |           0      0.00%    100.00% |           0      0.00%    100.00% (Unspecified)
system.caches.L1Cache_Controller.Data::total           66                       (Unspecified)
system.caches.L1Cache_Controller.Data_Exclusive |      577423     12.52%     12.52% |      575721     12.48%     24.99% |      575461     12.47%     37.47% |      582628     12.63%     50.10% |      575816     12.48%     62.58% |      574664     12.46%     75.03% |      576031     12.49%     87.52% |      575905     12.48%    100.00% (Unspecified)
system.caches.L1Cache_Controller.Data_Exclusive::total      4613649                       (Unspecified)
system.caches.L1Cache_Controller.DataS_fromL1 |         331      8.56%      8.56% |        1284     33.19%     41.74% |         444     11.48%     53.22% |         403     10.42%     63.63% |         396     10.24%     73.87% |         385      9.95%     83.82% |         344      8.89%     92.71% |         282      7.29%    100.00% (Unspecified)
system.caches.L1Cache_Controller.DataS_fromL1::total         3869                       (Unspecified)
system.caches.L1Cache_Controller.Data_all_Acks |      281750     12.69%     12.69% |      275009     12.39%     25.08% |      276852     12.47%     37.56% |      277121     12.48%     50.04% |      277370     12.50%     62.54% |      277379     12.50%     75.03% |      277550     12.50%     87.54% |      276673     12.46%    100.00% (Unspecified)
system.caches.L1Cache_Controller.Data_all_Acks::total      2219704                       (Unspecified)
system.caches.L1Cache_Controller.Ack     |        2030     90.26%     90.26% |          15      0.67%     90.93% |          13      0.58%     91.51% |          32      1.42%     92.93% |          94      4.18%     97.11% |          23      1.02%     98.13% |          28      1.24%     99.38% |          14      0.62%    100.00% (Unspecified)
system.caches.L1Cache_Controller.Ack::total         2249                       (Unspecified)
system.caches.L1Cache_Controller.Ack_all |         419     75.91%     75.91% |          15      2.72%     78.62% |          13      2.36%     80.98% |          23      4.17%     85.14% |          29      5.25%     90.40% |          17      3.08%     93.48% |          22      3.99%     97.46% |          14      2.54%    100.00% (Unspecified)
system.caches.L1Cache_Controller.Ack_all::total          552                       (Unspecified)
system.caches.L1Cache_Controller.WB_Ack  |      829147     12.59%     12.59% |      820561     12.46%     25.06% |      821311     12.47%     37.53% |      829005     12.59%     50.12% |      820662     12.46%     62.58% |      821831     12.48%     75.07% |      822110     12.49%     87.55% |      819685     12.45%    100.00% (Unspecified)
system.caches.L1Cache_Controller.WB_Ack::total      6584312                       (Unspecified)
system.caches.L1Cache_Controller.NP.Load |      582939     12.50%     12.50% |      581432     12.47%     24.97% |      581334     12.47%     37.44% |      588797     12.63%     50.07% |      582254     12.49%     62.56% |      580713     12.45%     75.01% |      582601     12.50%     87.51% |      582478     12.49%    100.00% (Unspecified)
system.caches.L1Cache_Controller.NP.Load::total      4662548                       (Unspecified)
system.caches.L1Cache_Controller.NP.Ifetch |       11731     17.59%     17.59% |        6659      9.98%     27.57% |        7429     11.14%     38.71% |        7833     11.75%     50.46% |        8595     12.89%     63.35% |        7383     11.07%     74.42% |        8506     12.75%     87.17% |        8555     12.83%    100.00% (Unspecified)
system.caches.L1Cache_Controller.NP.Ifetch::total        66691                       (Unspecified)
system.caches.L1Cache_Controller.NP.Store |      256010     12.58%     12.58% |      254593     12.51%     25.09% |      254730     12.52%     37.60% |      254260     12.49%     50.09% |      253802     12.47%     62.56% |      255256     12.54%     75.11% |      253780     12.47%     87.57% |      252893     12.43%    100.00% (Unspecified)
system.caches.L1Cache_Controller.NP.Store::total      2035324                       (Unspecified)
system.caches.L1Cache_Controller.NP.Inv  |        8528     14.49%     14.49% |        6512     11.06%     25.55% |        6878     11.68%     37.23% |        6972     11.84%     49.07% |        7899     13.42%     62.49% |        6829     11.60%     74.09% |        7694     13.07%     87.16% |        7559     12.84%    100.00% (Unspecified)
system.caches.L1Cache_Controller.NP.Inv::total        58871                       (Unspecified)
system.caches.L1Cache_Controller.I.Load  |         747     10.17%     10.17% |         997     13.57%     23.73% |        1071     14.58%     38.31% |        1010     13.75%     52.05% |         898     12.22%     64.28% |         980     13.34%     77.61% |         856     11.65%     89.26% |         789     10.74%    100.00% (Unspecified)
system.caches.L1Cache_Controller.I.Load::total         7348                       (Unspecified)
system.caches.L1Cache_Controller.I.Ifetch |        7907     12.40%     12.40% |        8138     12.76%     25.16% |        8040     12.61%     37.77% |        7986     12.52%     50.29% |        7830     12.28%     62.57% |        7945     12.46%     75.03% |        7971     12.50%     87.53% |        7950     12.47%    100.00% (Unspecified)
system.caches.L1Cache_Controller.I.Ifetch::total        63767                       (Unspecified)
system.caches.L1Cache_Controller.I.Store |         237     14.67%     14.67% |         195     12.07%     26.73% |         153      9.47%     36.20% |         267     16.52%     52.72% |         204     12.62%     65.35% |         152      9.41%     74.75% |         212     13.12%     87.87% |         196     12.13%    100.00% (Unspecified)
system.caches.L1Cache_Controller.I.Store::total         1616                       (Unspecified)
system.caches.L1Cache_Controller.I.L1_Replacement |        6190      7.99%      7.99% |       11036     14.24%     22.23% |       10402     13.42%     35.65% |        9515     12.28%     47.93% |       10445     13.48%     61.41% |        9801     12.65%     74.05% |        9465     12.21%     86.27% |       10643     13.73%    100.00% (Unspecified)
system.caches.L1Cache_Controller.I.L1_Replacement::total        77497                       (Unspecified)
system.caches.L1Cache_Controller.S.Load  |     1462865     11.29%     11.29% |     1448035     11.17%     22.46% |     1651762     12.74%     35.20% |     1539269     11.88%     47.08% |     1692482     13.06%     60.13% |     1564216     12.07%     72.20% |     1888044     14.57%     86.77% |     1715148     13.23%    100.00% (Unspecified)
system.caches.L1Cache_Controller.S.Load::total     12961821                       (Unspecified)
system.caches.L1Cache_Controller.S.Ifetch |     5023782     12.36%     12.36% |     4966871     12.22%     24.58% |     5000939     12.30%     36.88% |     5265721     12.96%     49.84% |     5154115     12.68%     62.52% |     4944319     12.16%     74.68% |     5133174     12.63%     87.31% |     5156500     12.69%    100.00% (Unspecified)
system.caches.L1Cache_Controller.S.Ifetch::total     40645421                       (Unspecified)
system.caches.L1Cache_Controller.S.Store |         353     72.63%     72.63% |          15      3.09%     75.72% |          13      2.67%     78.40% |          23      4.73%     83.13% |          29      5.97%     89.09% |          17      3.50%     92.59% |          22      4.53%     97.12% |          14      2.88%    100.00% (Unspecified)
system.caches.L1Cache_Controller.S.Store::total          486                       (Unspecified)
system.caches.L1Cache_Controller.S.Inv   |       11548     13.50%     13.50% |       10638     12.44%     25.94% |       10684     12.49%     38.43% |       10603     12.40%     50.83% |       10506     12.28%     63.12% |       10517     12.30%     75.41% |       10586     12.38%     87.79% |       10440     12.21%    100.00% (Unspecified)
system.caches.L1Cache_Controller.S.Inv::total        85522                       (Unspecified)
system.caches.L1Cache_Controller.S.L1_Replacement |       15156     14.89%     14.89% |       10977     10.78%     25.67% |       11670     11.46%     37.13% |       12266     12.05%     49.18% |       13434     13.20%     62.38% |       11610     11.40%     73.78% |       13204     12.97%     86.75% |       13488     13.25%    100.00% (Unspecified)
system.caches.L1Cache_Controller.S.L1_Replacement::total       101805                       (Unspecified)
system.caches.L1Cache_Controller.E.Load  |     2894795     11.88%     11.88% |     3056211     12.54%     24.42% |     2971551     12.19%     36.61% |     3122591     12.81%     49.42% |     3078456     12.63%     62.05% |     2933234     12.04%     74.09% |     3051643     12.52%     86.61% |     3263437     13.39%    100.00% (Unspecified)
system.caches.L1Cache_Controller.E.Load::total     24371918                       (Unspecified)
system.caches.L1Cache_Controller.E.Store |       75480     12.63%     12.63% |       74967     12.54%     25.17% |       74978     12.54%     37.71% |       75317     12.60%     50.32% |       74042     12.39%     62.70% |       74551     12.47%     75.18% |       74268     12.43%     87.60% |       74110     12.40%    100.00% (Unspecified)
system.caches.L1Cache_Controller.E.Store::total       597713                       (Unspecified)
system.caches.L1Cache_Controller.E.Inv   |        2697      9.51%      9.51% |        3882     13.70%     23.21% |        4241     14.96%     38.17% |        3563     12.57%     50.74% |        3518     12.41%     63.15% |        3969     14.00%     77.15% |        2915     10.28%     87.44% |        3561     12.56%    100.00% (Unspecified)
system.caches.L1Cache_Controller.E.Inv::total        28346                       (Unspecified)
system.caches.L1Cache_Controller.E.L1_Replacement |      496590     12.50%     12.50% |      494621     12.45%     24.96% |      494663     12.45%     37.41% |      502389     12.65%     50.06% |      496006     12.49%     62.55% |      494776     12.46%     75.01% |      496674     12.51%     87.51% |      496033     12.49%    100.00% (Unspecified)
system.caches.L1Cache_Controller.E.L1_Replacement::total      3971752                       (Unspecified)
system.caches.L1Cache_Controller.E.Fwd_GETX |          10     16.39%     16.39% |          14     22.95%     39.34% |           8     13.11%     52.46% |           7     11.48%     63.93% |           1      1.64%     65.57% |           6      9.84%     75.41% |           8     13.11%     88.52% |           7     11.48%    100.00% (Unspecified)
system.caches.L1Cache_Controller.E.Fwd_GETX::total           61                       (Unspecified)
system.caches.L1Cache_Controller.E.Fwd_GETS |         812     26.98%     26.98% |         423     14.05%     41.03% |         284      9.44%     50.47% |         255      8.47%     58.94% |         408     13.55%     72.49% |         102      3.39%     75.88% |         290      9.63%     85.51% |         436     14.49%    100.00% (Unspecified)
system.caches.L1Cache_Controller.E.Fwd_GETS::total         3010                       (Unspecified)
system.caches.L1Cache_Controller.E.Fwd_GET_INSTR |          43    100.00%    100.00% |           0      0.00%    100.00% |           0      0.00%    100.00% |           0      0.00%    100.00% |           0      0.00%    100.00% |           0      0.00%    100.00% |           0      0.00%    100.00% |           0      0.00%    100.00% (Unspecified)
system.caches.L1Cache_Controller.E.Fwd_GET_INSTR::total           43                       (Unspecified)
system.caches.L1Cache_Controller.M.Load  |     3214826     12.40%     12.40% |     3159469     12.19%     24.59% |     3184185     12.28%     36.88% |     3359372     12.96%     49.84% |     3289380     12.69%     62.53% |     3145943     12.14%     74.67% |     3276137     12.64%     87.31% |     3290130     12.69%    100.00% (Unspecified)
system.caches.L1Cache_Controller.M.Load::total     25919442                       (Unspecified)
system.caches.L1Cache_Controller.M.Store |     8399809     12.46%     12.46% |     8331660     12.36%     24.82% |     8355477     12.39%     37.21% |     8596814     12.75%     49.97% |     8475613     12.57%     62.54% |     8311678     12.33%     74.87% |     8466283     12.56%     87.43% |     8474177     12.57%    100.00% (Unspecified)
system.caches.L1Cache_Controller.M.Store::total     67411511                       (Unspecified)
system.caches.L1Cache_Controller.M.Inv   |        1103      8.86%      8.86% |        2021     16.23%     25.09% |        1733     13.92%     39.01% |        1963     15.77%     54.78% |        1403     11.27%     66.05% |        1527     12.27%     78.31% |         995      7.99%     86.31% |        1705     13.69%    100.00% (Unspecified)
system.caches.L1Cache_Controller.M.Inv::total        12450                       (Unspecified)
system.caches.L1Cache_Controller.M.L1_Replacement |      332557     12.73%     12.73% |      325940     12.48%     25.21% |      326648     12.50%     37.71% |      326616     12.50%     50.21% |      324656     12.43%     62.64% |      327055     12.52%     75.16% |      325436     12.46%     87.61% |      323652     12.39%    100.00% (Unspecified)
system.caches.L1Cache_Controller.M.L1_Replacement::total      2612560                       (Unspecified)
system.caches.L1Cache_Controller.M.Fwd_GETX |          17     12.50%     12.50% |          19     13.97%     26.47% |          19     13.97%     40.44% |          13      9.56%     50.00% |          12      8.82%     58.82% |          18     13.24%     72.06% |          21     15.44%     87.50% |          17     12.50%    100.00% (Unspecified)
system.caches.L1Cache_Controller.M.Fwd_GETX::total          136                       (Unspecified)
system.caches.L1Cache_Controller.M.Fwd_GETS |         618     75.74%     75.74% |           9      1.10%     76.84% |           8      0.98%     77.82% |          23      2.82%     80.64% |         117     14.34%     94.98% |          10      1.23%     96.20% |          20      2.45%     98.65% |          11      1.35%    100.00% (Unspecified)
system.caches.L1Cache_Controller.M.Fwd_GETS::total          816                       (Unspecified)
system.caches.L1Cache_Controller.IS.Inv  |           0      0.00%      0.00% |          65     14.94%     14.94% |          91     20.92%     35.86% |          78     17.93%     53.79% |          80     18.39%     72.18% |          80     18.39%     90.57% |          35      8.05%     98.62% |           6      1.38%    100.00% (Unspecified)
system.caches.L1Cache_Controller.IS.Inv::total          435                       (Unspecified)
system.caches.L1Cache_Controller.IS.Data_Exclusive |      577423     12.52%     12.52% |      575721     12.48%     24.99% |      575461     12.47%     37.47% |      582628     12.63%     50.10% |      575816     12.48%     62.58% |      574664     12.46%     75.03% |      576031     12.49%     87.52% |      575905     12.48%    100.00% (Unspecified)
system.caches.L1Cache_Controller.IS.Data_Exclusive::total      4613649                       (Unspecified)
system.caches.L1Cache_Controller.IS.DataS_fromL1 |         331      8.56%      8.56% |        1284     33.19%     41.74% |         444     11.48%     53.22% |         403     10.42%     63.63% |         396     10.24%     73.87% |         385      9.95%     83.82% |         344      8.89%     92.71% |         282      7.29%    100.00% (Unspecified)
system.caches.L1Cache_Controller.IS.DataS_fromL1::total         3869                       (Unspecified)
system.caches.L1Cache_Controller.IS.Data_all_Acks |       25570     14.02%     14.02% |       20156     11.05%     25.07% |       21878     11.99%     37.06% |       22517     12.34%     49.41% |       23285     12.77%     62.17% |       21892     12.00%     74.18% |       23524     12.90%     87.07% |       23579     12.93%    100.00% (Unspecified)
system.caches.L1Cache_Controller.IS.Data_all_Acks::total       182401                       (Unspecified)
system.caches.L1Cache_Controller.IM.Data |          66    100.00%    100.00% |           0      0.00%    100.00% |           0      0.00%    100.00% |           0      0.00%    100.00% |           0      0.00%    100.00% |           0      0.00%    100.00% |           0      0.00%    100.00% |           0      0.00%    100.00% (Unspecified)
system.caches.L1Cache_Controller.IM.Data::total           66                       (Unspecified)
system.caches.L1Cache_Controller.IM.Data_all_Acks |      256180     12.58%     12.58% |      254788     12.51%     25.09% |      254883     12.51%     37.60% |      254526     12.50%     50.10% |      254005     12.47%     62.57% |      255407     12.54%     75.10% |      253991     12.47%     87.57% |      253088     12.43%    100.00% (Unspecified)
system.caches.L1Cache_Controller.IM.Data_all_Acks::total      2036868                       (Unspecified)
system.caches.L1Cache_Controller.SM.Ack  |        2030     90.26%     90.26% |          15      0.67%     90.93% |          13      0.58%     91.51% |          32      1.42%     92.93% |          94      4.18%     97.11% |          23      1.02%     98.13% |          28      1.24%     99.38% |          14      0.62%    100.00% (Unspecified)
system.caches.L1Cache_Controller.SM.Ack::total         2249                       (Unspecified)
system.caches.L1Cache_Controller.SM.Ack_all |         419     75.91%     75.91% |          15      2.72%     78.62% |          13      2.36%     80.98% |          23      4.17%     85.14% |          29      5.25%     90.40% |          17      3.08%     93.48% |          22      3.99%     97.46% |          14      2.54%    100.00% (Unspecified)
system.caches.L1Cache_Controller.SM.Ack_all::total          552                       (Unspecified)
system.caches.L1Cache_Controller.IS_I.Data_all_Acks |           0      0.00%      0.00% |          65     14.94%     14.94% |          91     20.92%     35.86% |          78     17.93%     53.79% |          80     18.39%     72.18% |          80     18.39%     90.57% |          35      8.05%     98.62% |           6      1.38%    100.00% (Unspecified)
system.caches.L1Cache_Controller.IS_I.Data_all_Acks::total          435                       (Unspecified)
system.caches.L1Cache_Controller.M_I.Load |           0      0.00%      0.00% |           0      0.00%      0.00% |           0      0.00%      0.00% |           0      0.00%      0.00% |           0      0.00%      0.00% |           0      0.00%      0.00% |           1    100.00%    100.00% |           0      0.00%    100.00% (Unspecified)
system.caches.L1Cache_Controller.M_I.Load::total            1                       (Unspecified)
system.caches.L1Cache_Controller.M_I.Ifetch |           6    100.00%    100.00% |           0      0.00%    100.00% |           0      0.00%    100.00% |           0      0.00%    100.00% |           0      0.00%    100.00% |           0      0.00%    100.00% |           0      0.00%    100.00% |           0      0.00%    100.00% (Unspecified)
system.caches.L1Cache_Controller.M_I.Ifetch::total            6                       (Unspecified)
system.caches.L1Cache_Controller.M_I.Inv |           0      0.00%      0.00% |           2     40.00%     40.00% |           0      0.00%     40.00% |           2     40.00%     80.00% |           1     20.00%    100.00% |           0      0.00%    100.00% |           0      0.00%    100.00% |           0      0.00%    100.00% (Unspecified)
system.caches.L1Cache_Controller.M_I.Inv::total            5                       (Unspecified)
system.caches.L1Cache_Controller.M_I.WB_Ack |      829147     12.59%     12.59% |      820559     12.46%     25.06% |      821311     12.47%     37.53% |      829003     12.59%     50.12% |      820661     12.46%     62.58% |      821831     12.48%     75.07% |      822110     12.49%     87.55% |      819685     12.45%    100.00% (Unspecified)
system.caches.L1Cache_Controller.M_I.WB_Ack::total      6584307                       (Unspecified)
system.caches.L1Cache_Controller.SINK_WB_ACK.WB_Ack |           0      0.00%      0.00% |           2     40.00%     40.00% |           0      0.00%     40.00% |           2     40.00%     80.00% |           1     20.00%    100.00% |           0      0.00%    100.00% |           0      0.00%    100.00% |           0      0.00%    100.00% (Unspecified)
system.caches.L1Cache_Controller.SINK_WB_ACK.WB_Ack::total            5                       (Unspecified)
system.caches.Directory_Controller.Fetch |       17584      0.26%      0.26% |     6628502     99.74%    100.00% (Unspecified)
system.caches.Directory_Controller.Fetch::total      6646086                       (Unspecified)
system.caches.Directory_Controller.Data  |        1149      0.04%      0.04% |     2662259     99.96%    100.00% (Unspecified)
system.caches.Directory_Controller.Data::total      2663408                       (Unspecified)
system.caches.Directory_Controller.Memory_Data |       17584      0.26%      0.26% |     6628497     99.74%    100.00% (Unspecified)
system.caches.Directory_Controller.Memory_Data::total      6646081                       (Unspecified)
system.caches.Directory_Controller.Memory_Ack |        1149      0.04%      0.04% |     2662257     99.96%    100.00% (Unspecified)
system.caches.Directory_Controller.Memory_Ack::total      2663406                       (Unspecified)
system.caches.Directory_Controller.CleanReplacement |       16252      0.41%      0.41% |     3966426     99.59%    100.00% (Unspecified)
system.caches.Directory_Controller.CleanReplacement::total      3982678                       (Unspecified)
system.caches.Directory_Controller.I.Fetch |       17584      0.26%      0.26% |     6628502     99.74%    100.00% (Unspecified)
system.caches.Directory_Controller.I.Fetch::total      6646086                       (Unspecified)
system.caches.Directory_Controller.M.Data |        1149      0.04%      0.04% |     2662259     99.96%    100.00% (Unspecified)
system.caches.Directory_Controller.M.Data::total      2663408                       (Unspecified)
system.caches.Directory_Controller.M.CleanReplacement |       16252      0.41%      0.41% |     3966426     99.59%    100.00% (Unspecified)
system.caches.Directory_Controller.M.CleanReplacement::total      3982678                       (Unspecified)
system.caches.Directory_Controller.IM.Memory_Data |       17584      0.26%      0.26% |     6628497     99.74%    100.00% (Unspecified)
system.caches.Directory_Controller.IM.Memory_Data::total      6646081                       (Unspecified)
system.caches.Directory_Controller.MI.Memory_Ack |        1149      0.04%      0.04% |     2662257     99.96%    100.00% (Unspecified)
system.caches.Directory_Controller.MI.Memory_Ack::total      2663406                       (Unspecified)
system.caches.L2Cache_Controller.L1_GET_INSTR |       17274     13.23%     13.23% |       17256     13.21%     26.44% |       15913     12.18%     38.62% |       12099      9.26%     47.88% |       16913     12.95%     60.83% |       16858     12.91%     73.74% |       16705     12.79%     86.53% |       17594     13.47%    100.00% (Unspecified)
system.caches.L2Cache_Controller.L1_GET_INSTR::total       130612                       (Unspecified)
system.caches.L2Cache_Controller.L1_GETS |      588861     12.60%     12.60% |      584546     12.51%     25.11% |      583934     12.50%     37.61% |      581960     12.45%     50.06% |      581919     12.45%     62.51% |      582317     12.46%     74.97% |      585008     12.52%     87.49% |      584465     12.51%    100.00% (Unspecified)
system.caches.L2Cache_Controller.L1_GETS::total      4673010                       (Unspecified)
system.caches.L2Cache_Controller.L1_GETX |      255282     12.53%     12.53% |      254311     12.48%     25.02% |      252790     12.41%     37.43% |      253828     12.46%     49.89% |      254453     12.49%     62.38% |      256424     12.59%     74.96% |      254651     12.50%     87.46% |      255356     12.54%    100.00% (Unspecified)
system.caches.L2Cache_Controller.L1_GETX::total      2037095                       (Unspecified)
system.caches.L2Cache_Controller.L1_UPGRADE |           5      0.84%      0.84% |          41      6.88%      7.72% |          49      8.22%     15.94% |          11      1.85%     17.79% |          43      7.21%     25.00% |          15      2.52%     27.52% |         421     70.64%     98.15% |          11      1.85%    100.00% (Unspecified)
system.caches.L2Cache_Controller.L1_UPGRADE::total          596                       (Unspecified)
system.caches.L2Cache_Controller.L1_PUTX |      823157     12.50%     12.50% |      823253     12.50%     25.01% |      821057     12.47%     37.47% |      822406     12.49%     49.97% |      822752     12.50%     62.46% |      825207     12.53%     74.99% |      822722     12.50%     87.49% |      823753     12.51%    100.00% (Unspecified)
system.caches.L2Cache_Controller.L1_PUTX::total      6584307                       (Unspecified)
system.caches.L2Cache_Controller.L1_PUTX_old |           2     20.00%     20.00% |           0      0.00%     20.00% |           0      0.00%     20.00% |           2     20.00%     40.00% |           4     40.00%     80.00% |           2     20.00%    100.00% |           0      0.00%    100.00% |           0      0.00%    100.00% (Unspecified)
system.caches.L2Cache_Controller.L1_PUTX_old::total           10                       (Unspecified)
system.caches.L2Cache_Controller.L2_Replacement |      332008     12.52%     12.52% |      330829     12.48%     25.00% |      329444     12.43%     37.43% |      331013     12.49%     49.92% |      330742     12.48%     62.39% |      333430     12.58%     74.97% |      331167     12.49%     87.46% |      332438     12.54%    100.00% (Unspecified)
system.caches.L2Cache_Controller.L2_Replacement::total      2651071                       (Unspecified)
system.caches.L2Cache_Controller.L2_Replacement_clean |      499648     12.51%     12.51% |      500649     12.53%     25.04% |      498654     12.48%     37.52% |      498420     12.48%     50.00% |      499414     12.50%     62.50% |      499567     12.50%     75.00% |      499289     12.50%     87.50% |      499375     12.50%    100.00% (Unspecified)
system.caches.L2Cache_Controller.L2_Replacement_clean::total      3995016                       (Unspecified)
system.caches.L2Cache_Controller.Mem_Data |      831655     12.51%     12.51% |      831477     12.51%     25.02% |      828098     12.46%     37.48% |      829432     12.48%     49.96% |      830155     12.49%     62.46% |      832997     12.53%     74.99% |      830456     12.50%     87.48% |      831811     12.52%    100.00% (Unspecified)
system.caches.L2Cache_Controller.Mem_Data::total      6646081                       (Unspecified)
system.caches.L2Cache_Controller.Mem_Ack |      831655     12.51%     12.51% |      831478     12.51%     25.02% |      828098     12.46%     37.48% |      829433     12.48%     49.96% |      830155     12.49%     62.46% |      832997     12.53%     74.99% |      830456     12.50%     87.48% |      831812     12.52%    100.00% (Unspecified)
system.caches.L2Cache_Controller.Mem_Ack::total      6646084                       (Unspecified)
system.caches.L2Cache_Controller.WB_Data |        1884     14.20%     14.20% |        1700     12.81%     27.01% |        1249      9.41%     36.43% |        1413     10.65%     47.08% |        1449     10.92%     58.00% |        1727     13.02%     71.01% |        2044     15.41%     86.42% |        1802     13.58%    100.00% (Unspecified)
system.caches.L2Cache_Controller.WB_Data::total        13268                       (Unspecified)
system.caches.L2Cache_Controller.WB_Data_clean |         489     16.00%     16.00% |         440     14.40%     30.40% |         411     13.45%     43.85% |         363     11.88%     55.73% |         310     10.14%     65.87% |         310     10.14%     76.01% |         413     13.51%     89.53% |         320     10.47%    100.00% (Unspecified)
system.caches.L2Cache_Controller.WB_Data_clean::total         3056                       (Unspecified)
system.caches.L2Cache_Controller.Ack     |       18527     15.43%     15.43% |       16062     13.38%     28.81% |       15628     13.02%     41.82% |       11658      9.71%     51.53% |       14370     11.97%     63.50% |       14147     11.78%     75.28% |       13897     11.57%     86.85% |       15785     13.15%    100.00% (Unspecified)
system.caches.L2Cache_Controller.Ack::total       120074                       (Unspecified)
system.caches.L2Cache_Controller.Ack_all |        6691     13.18%     13.18% |        6853     13.49%     26.67% |        5956     11.73%     38.40% |        5814     11.45%     49.85% |        6206     12.22%     62.07% |        6551     12.90%     74.97% |        6145     12.10%     87.07% |        6569     12.93%    100.00% (Unspecified)
system.caches.L2Cache_Controller.Ack_all::total        50785                       (Unspecified)
system.caches.L2Cache_Controller.Unblock |         648     16.75%     16.75% |         525     13.57%     30.32% |         470     12.15%     42.47% |         417     10.78%     53.24% |         350      9.05%     62.29% |         326      8.43%     70.72% |         800     20.68%     91.39% |         333      8.61%    100.00% (Unspecified)
system.caches.L2Cache_Controller.Unblock::total         3869                       (Unspecified)
system.caches.L2Cache_Controller.Exclusive_Unblock |      831718     12.51%     12.51% |      831919     12.51%     25.01% |      828521     12.46%     37.47% |      830409     12.49%     49.96% |      830860     12.49%     62.45% |      833989     12.54%     74.99% |      831454     12.50%     87.49% |      832199     12.51%    100.00% (Unspecified)
system.caches.L2Cache_Controller.Exclusive_Unblock::total      6651069                       (Unspecified)
system.caches.L2Cache_Controller.NP.L1_GET_INSTR |        2152     13.01%     13.01% |        2310     13.97%     26.98% |        2114     12.78%     39.77% |        1702     10.29%     50.06% |        2043     12.35%     62.42% |        2016     12.19%     74.61% |        1978     11.96%     86.57% |        2221     13.43%    100.00% (Unspecified)
system.caches.L2Cache_Controller.NP.L1_GET_INSTR::total        16536                       (Unspecified)
system.caches.L2Cache_Controller.NP.L1_GETS |      574348     12.50%     12.50% |      574957     12.52%     25.02% |      573320     12.48%     37.50% |      573987     12.49%     49.99% |      573993     12.49%     62.49% |      574856     12.51%     75.00% |      574092     12.50%     87.49% |      574503     12.51%    100.00% (Unspecified)
system.caches.L2Cache_Controller.NP.L1_GETS::total      4594056                       (Unspecified)
system.caches.L2Cache_Controller.NP.L1_GETX |      255156     12.54%     12.54% |      254211     12.49%     25.02% |      252664     12.41%     37.44% |      253744     12.47%     49.90% |      254120     12.48%     62.39% |      256125     12.58%     74.97% |      254386     12.50%     87.47% |      255089     12.53%    100.00% (Unspecified)
system.caches.L2Cache_Controller.NP.L1_GETX::total      2035495                       (Unspecified)
system.caches.L2Cache_Controller.NP.L1_PUTX_old |           1     20.00%     20.00% |           0      0.00%     20.00% |           0      0.00%     20.00% |           1     20.00%     40.00% |           2     40.00%     80.00% |           1     20.00%    100.00% |           0      0.00%    100.00% |           0      0.00%    100.00% (Unspecified)
system.caches.L2Cache_Controller.NP.L1_PUTX_old::total            5                       (Unspecified)
system.caches.L2Cache_Controller.SS.L1_GET_INSTR |       11451     13.30%     13.30% |       11095     12.89%     26.19% |       10373     12.05%     38.23% |        7563      8.78%     47.02% |       11264     13.08%     60.10% |       11107     12.90%     73.00% |       11201     13.01%     86.01% |       12047     13.99%    100.00% (Unspecified)
system.caches.L2Cache_Controller.SS.L1_GET_INSTR::total        86101                       (Unspecified)
system.caches.L2Cache_Controller.SS.L1_GETS |        9453     22.84%     22.84% |        4980     12.03%     34.87% |        6095     14.73%     49.60% |        3710      8.96%     58.57% |        3812      9.21%     67.78% |        3114      7.52%     75.30% |        4764     11.51%     86.81% |        5457     13.19%    100.00% (Unspecified)
system.caches.L2Cache_Controller.SS.L1_GETS::total        41385                       (Unspecified)
system.caches.L2Cache_Controller.SS.L1_GETX |          44     66.67%     66.67% |           0      0.00%     66.67% |           0      0.00%     66.67% |           0      0.00%     66.67% |           0      0.00%     66.67% |           0      0.00%     66.67% |          22     33.33%    100.00% |           0      0.00%    100.00% (Unspecified)
system.caches.L2Cache_Controller.SS.L1_GETX::total           66                       (Unspecified)
system.caches.L2Cache_Controller.SS.L1_UPGRADE |           5      1.03%      1.03% |          41      8.44%      9.47% |          49     10.08%     19.55% |          11      2.26%     21.81% |          43      8.85%     30.66% |          15      3.09%     33.74% |         311     63.99%     97.74% |          11      2.26%    100.00% (Unspecified)
system.caches.L2Cache_Controller.SS.L1_UPGRADE::total          486                       (Unspecified)
system.caches.L2Cache_Controller.SS.L2_Replacement |         118     37.58%     37.58% |          58     18.47%     56.05% |          12      3.82%     59.87% |          52     16.56%     76.43% |           5      1.59%     78.03% |           3      0.96%     78.98% |          64     20.38%     99.36% |           2      0.64%    100.00% (Unspecified)
system.caches.L2Cache_Controller.SS.L2_Replacement::total          314                       (Unspecified)
system.caches.L2Cache_Controller.SS.L2_Replacement_clean |        3154     14.26%     14.26% |        3007     13.59%     27.85% |        2940     13.29%     41.13% |        2303     10.41%     51.54% |        2637     11.92%     63.46% |        2594     11.72%     75.19% |        2512     11.35%     86.54% |        2978     13.46%    100.00% (Unspecified)
system.caches.L2Cache_Controller.SS.L2_Replacement_clean::total        22125                       (Unspecified)
system.caches.L2Cache_Controller.M.L1_GET_INSTR |           2     10.53%     10.53% |           6     31.58%     42.11% |           2     10.53%     52.63% |           0      0.00%     52.63% |           2     10.53%     63.16% |           3     15.79%     78.95% |           3     15.79%     94.74% |           1      5.26%    100.00% (Unspecified)
system.caches.L2Cache_Controller.M.L1_GET_INSTR::total           19                       (Unspecified)
system.caches.L2Cache_Controller.M.L1_GETS |        2688     11.84%     11.84% |        2965     13.06%     24.90% |        2855     12.57%     37.47% |        2893     12.74%     50.21% |        2806     12.36%     62.57% |        3029     13.34%     75.91% |        2607     11.48%     87.39% |        2863     12.61%    100.00% (Unspecified)
system.caches.L2Cache_Controller.M.L1_GETS::total        22706                       (Unspecified)
system.caches.L2Cache_Controller.M.L1_GETX |          59      4.99%      4.99% |          62      5.25%     10.24% |         102      8.63%     18.87% |          75      6.35%     25.21% |         205     17.34%     42.55% |         228     19.29%     61.84% |         219     18.53%     80.37% |         232     19.63%    100.00% (Unspecified)
system.caches.L2Cache_Controller.M.L1_GETX::total         1182                       (Unspecified)
system.caches.L2Cache_Controller.M.L2_Replacement |      331886     12.52%     12.52% |      330771     12.48%     25.00% |      329419     12.43%     37.43% |      330944     12.49%     49.91% |      330721     12.48%     62.39% |      333405     12.58%     74.97% |      331076     12.49%     87.46% |      332420     12.54%    100.00% (Unspecified)
system.caches.L2Cache_Controller.M.L2_Replacement::total      2650642                       (Unspecified)
system.caches.L2Cache_Controller.M.L2_Replacement_clean |      491354     12.50%     12.50% |      492239     12.52%     25.01% |      491533     12.50%     37.51% |      491316     12.49%     50.01% |      491820     12.51%     62.52% |      491330     12.50%     75.01% |      491578     12.50%     87.51% |      491035     12.49%    100.00% (Unspecified)
system.caches.L2Cache_Controller.M.L2_Replacement_clean::total      3932205                       (Unspecified)
system.caches.L2Cache_Controller.MT.L1_GET_INSTR |           8     18.60%     18.60% |           6     13.95%     32.56% |           5     11.63%     44.19% |           4      9.30%     53.49% |           3      6.98%     60.47% |           6     13.95%     74.42% |           6     13.95%     88.37% |           5     11.63%    100.00% (Unspecified)
system.caches.L2Cache_Controller.MT.L1_GET_INSTR::total           43                       (Unspecified)
system.caches.L2Cache_Controller.MT.L1_GETS |         640     16.73%     16.73% |         519     13.57%     30.29% |         465     12.15%     42.45% |         413     10.79%     53.24% |         347      9.07%     62.31% |         320      8.36%     70.67% |         794     20.75%     91.43% |         328      8.57%    100.00% (Unspecified)
system.caches.L2Cache_Controller.MT.L1_GETS::total         3826                       (Unspecified)
system.caches.L2Cache_Controller.MT.L1_GETX |          15      7.61%      7.61% |          22     11.17%     18.78% |          17      8.63%     27.41% |           5      2.54%     29.95% |          50     25.38%     55.33% |          61     30.96%     86.29% |          13      6.60%     92.89% |          14      7.11%    100.00% (Unspecified)
system.caches.L2Cache_Controller.MT.L1_GETX::total          197                       (Unspecified)
system.caches.L2Cache_Controller.MT.L1_PUTX |      823157     12.50%     12.50% |      823253     12.50%     25.01% |      821057     12.47%     37.47% |      822406     12.49%     49.97% |      822752     12.50%     62.46% |      825207     12.53%     74.99% |      822722     12.50%     87.49% |      823753     12.51%    100.00% (Unspecified)
system.caches.L2Cache_Controller.MT.L1_PUTX::total      6584307                       (Unspecified)
system.caches.L2Cache_Controller.MT.L2_Replacement |           4      3.48%      3.48% |           0      0.00%      3.48% |          13     11.30%     14.78% |          17     14.78%     29.57% |          16     13.91%     43.48% |          22     19.13%     62.61% |          27     23.48%     86.09% |          16     13.91%    100.00% (Unspecified)
system.caches.L2Cache_Controller.MT.L2_Replacement::total          115                       (Unspecified)
system.caches.L2Cache_Controller.MT.L2_Replacement_clean |        5140     12.63%     12.63% |        5403     13.28%     25.91% |        4181     10.28%     36.19% |        4801     11.80%     47.99% |        4957     12.18%     60.17% |        5643     13.87%     74.04% |        5199     12.78%     86.82% |        5362     13.18%    100.00% (Unspecified)
system.caches.L2Cache_Controller.MT.L2_Replacement_clean::total        40686                       (Unspecified)
system.caches.L2Cache_Controller.M_I.L1_GET_INSTR |          20     23.26%     23.26% |          18     20.93%     44.19% |          10     11.63%     55.81% |           8      9.30%     65.12% |           2      2.33%     67.44% |           7      8.14%     75.58% |           7      8.14%     83.72% |          14     16.28%    100.00% (Unspecified)
system.caches.L2Cache_Controller.M_I.L1_GET_INSTR::total           86                       (Unspecified)
system.caches.L2Cache_Controller.M_I.L1_GETS |           6     13.33%     13.33% |           7     15.56%     28.89% |           3      6.67%     35.56% |           0      0.00%     35.56% |           0      0.00%     35.56% |          12     26.67%     62.22% |           8     17.78%     80.00% |           9     20.00%    100.00% (Unspecified)
system.caches.L2Cache_Controller.M_I.L1_GETS::total           45                       (Unspecified)
system.caches.L2Cache_Controller.M_I.L1_GETX |           8     10.67%     10.67% |           9     12.00%     22.67% |           5      6.67%     29.33% |           4      5.33%     34.67% |          10     13.33%     48.00% |           9     12.00%     60.00% |           9     12.00%     72.00% |          21     28.00%    100.00% (Unspecified)
system.caches.L2Cache_Controller.M_I.L1_GETX::total           75                       (Unspecified)
system.caches.L2Cache_Controller.M_I.Mem_Ack |      831655     12.51%     12.51% |      831478     12.51%     25.02% |      828098     12.46%     37.48% |      829433     12.48%     49.96% |      830155     12.49%     62.46% |      832997     12.53%     74.99% |      830456     12.50%     87.48% |      831812     12.52%    100.00% (Unspecified)
system.caches.L2Cache_Controller.M_I.Mem_Ack::total      6646084                       (Unspecified)
system.caches.L2Cache_Controller.MT_I.WB_Data |           4      3.51%      3.51% |           0      0.00%      3.51% |          13     11.40%     14.91% |          17     14.91%     29.82% |          16     14.04%     43.86% |          22     19.30%     63.16% |          27     23.68%     86.84% |          15     13.16%    100.00% (Unspecified)
system.caches.L2Cache_Controller.MT_I.WB_Data::total          114                       (Unspecified)
system.caches.L2Cache_Controller.MT_I.Ack_all |           0      0.00%      0.00% |           0      0.00%      0.00% |           0      0.00%      0.00% |           0      0.00%      0.00% |           0      0.00%      0.00% |           0      0.00%      0.00% |           0      0.00%      0.00% |           1    100.00%    100.00% (Unspecified)
system.caches.L2Cache_Controller.MT_I.Ack_all::total            1                       (Unspecified)
system.caches.L2Cache_Controller.MCT_I.L1_PUTX_old |           1     20.00%     20.00% |           0      0.00%     20.00% |           0      0.00%     20.00% |           1     20.00%     40.00% |           2     40.00%     80.00% |           1     20.00%    100.00% |           0      0.00%    100.00% |           0      0.00%    100.00% (Unspecified)
system.caches.L2Cache_Controller.MCT_I.L1_PUTX_old::total            5                       (Unspecified)
system.caches.L2Cache_Controller.MCT_I.WB_Data |        1720     13.94%     13.94% |        1615     13.09%     27.03% |        1177      9.54%     36.57% |        1341     10.87%     47.44% |        1392     11.28%     58.72% |        1689     13.69%     72.41% |        1630     13.21%     85.62% |        1774     14.38%    100.00% (Unspecified)
system.caches.L2Cache_Controller.MCT_I.WB_Data::total        12338                       (Unspecified)
system.caches.L2Cache_Controller.MCT_I.WB_Data_clean |           1     33.33%     33.33% |           0      0.00%     33.33% |           0      0.00%     33.33% |           1     33.33%     66.67% |           1     33.33%    100.00% |           0      0.00%    100.00% |           0      0.00%    100.00% |           0      0.00%    100.00% (Unspecified)
system.caches.L2Cache_Controller.MCT_I.WB_Data_clean::total            3                       (Unspecified)
system.caches.L2Cache_Controller.MCT_I.Ack_all |        3419     12.06%     12.06% |        3788     13.36%     25.43% |        3004     10.60%     36.02% |        3459     12.20%     48.23% |        3564     12.57%     60.80% |        3954     13.95%     74.75% |        3569     12.59%     87.34% |        3588     12.66%    100.00% (Unspecified)
system.caches.L2Cache_Controller.MCT_I.Ack_all::total        28345                       (Unspecified)
system.caches.L2Cache_Controller.I_I.L1_GET_INSTR |           0      0.00%      0.00% |           0      0.00%      0.00% |           0      0.00%      0.00% |           0      0.00%      0.00% |           0      0.00%      0.00% |           0      0.00%      0.00% |           2    100.00%    100.00% |           0      0.00%    100.00% (Unspecified)
system.caches.L2Cache_Controller.I_I.L1_GET_INSTR::total            2                       (Unspecified)
system.caches.L2Cache_Controller.I_I.Ack |       17713     14.97%     14.97% |       15674     13.25%     28.22% |       15568     13.16%     41.38% |       11570      9.78%     51.16% |       14349     12.13%     63.29% |       14144     11.96%     75.25% |       13503     11.41%     86.66% |       15783     13.34%    100.00% (Unspecified)
system.caches.L2Cache_Controller.I_I.Ack::total       118304                       (Unspecified)
system.caches.L2Cache_Controller.I_I.Ack_all |        3154     14.26%     14.26% |        3007     13.59%     27.85% |        2940     13.29%     41.13% |        2303     10.41%     51.54% |        2637     11.92%     63.46% |        2594     11.72%     75.19% |        2512     11.35%     86.54% |        2978     13.46%    100.00% (Unspecified)
system.caches.L2Cache_Controller.I_I.Ack_all::total        22125                       (Unspecified)
system.caches.L2Cache_Controller.S_I.Ack |         814     45.99%     45.99% |         388     21.92%     67.91% |          60      3.39%     71.30% |          88      4.97%     76.27% |          21      1.19%     77.46% |           3      0.17%     77.63% |         394     22.26%     99.89% |           2      0.11%    100.00% (Unspecified)
system.caches.L2Cache_Controller.S_I.Ack::total         1770                       (Unspecified)
system.caches.L2Cache_Controller.S_I.Ack_all |         118     37.58%     37.58% |          58     18.47%     56.05% |          12      3.82%     59.87% |          52     16.56%     76.43% |           5      1.59%     78.03% |           3      0.96%     78.98% |          64     20.38%     99.36% |           2      0.64%    100.00% (Unspecified)
system.caches.L2Cache_Controller.S_I.Ack_all::total          314                       (Unspecified)
system.caches.L2Cache_Controller.ISS.L1_GETS |         596     19.15%     19.15% |         338     10.86%     30.00% |         486     15.61%     45.62% |         305      9.80%     55.41% |         356     11.44%     66.85% |         325     10.44%     77.29% |         196      6.30%     83.58% |         511     16.42%    100.00% (Unspecified)
system.caches.L2Cache_Controller.ISS.L1_GETS::total         3113                       (Unspecified)
system.caches.L2Cache_Controller.ISS.Mem_Data |      573752     12.50%     12.50% |      574619     12.52%     25.01% |      572834     12.48%     37.49% |      573682     12.50%     49.99% |      573637     12.49%     62.48% |      574531     12.51%     75.00% |      573896     12.50%     87.50% |      573992     12.50%    100.00% (Unspecified)
system.caches.L2Cache_Controller.ISS.Mem_Data::total      4590943                       (Unspecified)
system.caches.L2Cache_Controller.IS.L1_GET_INSTR |        3630     13.08%     13.08% |        3807     13.71%     26.79% |        3400     12.25%     39.04% |        2816     10.14%     49.18% |        3597     12.96%     62.14% |        3707     13.35%     75.50% |        3504     12.62%     88.12% |        3298     11.88%    100.00% (Unspecified)
system.caches.L2Cache_Controller.IS.L1_GET_INSTR::total        27759                       (Unspecified)
system.caches.L2Cache_Controller.IS.L1_GETS |         935     19.44%     19.44% |         549     11.41%     30.85% |         624     12.97%     43.83% |         565     11.75%     55.57% |         529     11.00%     66.57% |         631     13.12%     79.69% |         221      4.59%     84.28% |         756     15.72%    100.00% (Unspecified)
system.caches.L2Cache_Controller.IS.L1_GETS::total         4810                       (Unspecified)
system.caches.L2Cache_Controller.IS.Mem_Data |        2748     13.99%     13.99% |        2648     13.48%     27.46% |        2600     13.23%     40.69% |        2007     10.21%     50.91% |        2399     12.21%     63.12% |        2341     11.91%     75.03% |        2174     11.06%     86.10% |        2732     13.90%    100.00% (Unspecified)
system.caches.L2Cache_Controller.IS.Mem_Data::total        19649                       (Unspecified)
system.caches.L2Cache_Controller.IM.L1_GETX |           0      0.00%      0.00% |           0      0.00%      0.00% |           1      3.85%      3.85% |           0      0.00%      3.85% |          23     88.46%     92.31% |           1      3.85%     96.15% |           1      3.85%    100.00% |           0      0.00%    100.00% (Unspecified)
system.caches.L2Cache_Controller.IM.L1_GETX::total           26                       (Unspecified)
system.caches.L2Cache_Controller.IM.Mem_Data |      255155     12.54%     12.54% |      254210     12.49%     25.02% |      252664     12.41%     37.44% |      253743     12.47%     49.90% |      254119     12.48%     62.39% |      256125     12.58%     74.97% |      254386     12.50%     87.47% |      255087     12.53%    100.00% (Unspecified)
system.caches.L2Cache_Controller.IM.Mem_Data::total      2035489                       (Unspecified)
system.caches.L2Cache_Controller.SS_MB.L1_GETS |           0      0.00%      0.00% |           0      0.00%      0.00% |           0      0.00%      0.00% |          42      3.98%      3.98% |          34      3.22%      7.20% |           0      0.00%      7.20% |         980     92.80%    100.00% |           0      0.00%    100.00% (Unspecified)
system.caches.L2Cache_Controller.SS_MB.L1_GETS::total         1056                       (Unspecified)
system.caches.L2Cache_Controller.SS_MB.Exclusive_Unblock |          49      8.88%      8.88% |          41      7.43%     16.30% |          49      8.88%     25.18% |          11      1.99%     27.17% |          43      7.79%     34.96% |          15      2.72%     37.68% |         333     60.33%     98.01% |          11      1.99%    100.00% (Unspecified)
system.caches.L2Cache_Controller.SS_MB.Exclusive_Unblock::total          552                       (Unspecified)
system.caches.L2Cache_Controller.MT_MB.L1_GETS |           5     33.33%     33.33% |           1      6.67%     40.00% |           0      0.00%     40.00% |           3     20.00%     60.00% |           1      6.67%     66.67% |           1      6.67%     73.33% |           4     26.67%    100.00% |           0      0.00%    100.00% (Unspecified)
system.caches.L2Cache_Controller.MT_MB.L1_GETS::total           15                       (Unspecified)
system.caches.L2Cache_Controller.MT_MB.L1_GETX |           0      0.00%      0.00% |           7     12.96%     12.96% |           1      1.85%     14.81% |           0      0.00%     14.81% |          45     83.33%     98.15% |           0      0.00%     98.15% |           1      1.85%    100.00% |           0      0.00%    100.00% (Unspecified)
system.caches.L2Cache_Controller.MT_MB.L1_GETX::total           54                       (Unspecified)
system.caches.L2Cache_Controller.MT_MB.Exclusive_Unblock |      831669     12.51%     12.51% |      831878     12.51%     25.01% |      828472     12.46%     37.47% |      830398     12.49%     49.96% |      830817     12.49%     62.45% |      833974     12.54%     74.99% |      831121     12.50%     87.49% |      832188     12.51%    100.00% (Unspecified)
system.caches.L2Cache_Controller.MT_MB.Exclusive_Unblock::total      6650517                       (Unspecified)
system.caches.L2Cache_Controller.MT_IIB.L1_GET_INSTR |           8     16.67%     16.67% |           7     14.58%     31.25% |           9     18.75%     50.00% |           6     12.50%     62.50% |           2      4.17%     66.67% |          10     20.83%     87.50% |           0      0.00%     87.50% |           6     12.50%    100.00% (Unspecified)
system.caches.L2Cache_Controller.MT_IIB.L1_GET_INSTR::total           48                       (Unspecified)
system.caches.L2Cache_Controller.MT_IIB.L1_GETS |         181      9.18%      9.18% |         222     11.26%     20.45% |          86      4.36%     24.81% |          42      2.13%     26.94% |          41      2.08%     29.02% |          28      1.42%     30.44% |        1334     67.68%     98.12% |          37      1.88%    100.00% (Unspecified)
system.caches.L2Cache_Controller.MT_IIB.L1_GETS::total         1971                       (Unspecified)
system.caches.L2Cache_Controller.MT_IIB.WB_Data |         160     20.59%     20.59% |          85     10.94%     31.53% |          39      5.02%     36.55% |          37      4.76%     41.31% |          41      5.28%     46.59% |          16      2.06%     48.65% |         386     49.68%     98.33% |          13      1.67%    100.00% (Unspecified)
system.caches.L2Cache_Controller.MT_IIB.WB_Data::total          777                       (Unspecified)
system.caches.L2Cache_Controller.MT_IIB.WB_Data_clean |         488     15.98%     15.98% |         440     14.41%     30.40% |         411     13.46%     43.86% |         362     11.86%     55.72% |         309     10.12%     65.84% |         310     10.15%     75.99% |         413     13.53%     89.52% |         320     10.48%    100.00% (Unspecified)
system.caches.L2Cache_Controller.MT_IIB.WB_Data_clean::total         3053                       (Unspecified)
system.caches.L2Cache_Controller.MT_IIB.Unblock |           0      0.00%      0.00% |           0      0.00%      0.00% |          20     51.28%     51.28% |          18     46.15%     97.44% |           0      0.00%     97.44% |           0      0.00%     97.44% |           1      2.56%    100.00% |           0      0.00%    100.00% (Unspecified)
system.caches.L2Cache_Controller.MT_IIB.Unblock::total           39                       (Unspecified)
system.caches.L2Cache_Controller.MT_IB.WB_Data |           0      0.00%      0.00% |           0      0.00%      0.00% |          20     51.28%     51.28% |          18     46.15%     97.44% |           0      0.00%     97.44% |           0      0.00%     97.44% |           1      2.56%    100.00% |           0      0.00%    100.00% (Unspecified)
system.caches.L2Cache_Controller.MT_IB.WB_Data::total           39                       (Unspecified)
system.caches.L2Cache_Controller.MT_SB.L1_GET_INSTR |           3     16.67%     16.67% |           7     38.89%     55.56% |           0      0.00%     55.56% |           0      0.00%     55.56% |           0      0.00%     55.56% |           2     11.11%     66.67% |           4     22.22%     88.89% |           2     11.11%    100.00% (Unspecified)
system.caches.L2Cache_Controller.MT_SB.L1_GET_INSTR::total           18                       (Unspecified)
system.caches.L2Cache_Controller.MT_SB.L1_GETS |           9     33.33%     33.33% |           8     29.63%     62.96% |           0      0.00%     62.96% |           0      0.00%     62.96% |           0      0.00%     62.96% |           1      3.70%     66.67% |           8     29.63%     96.30% |           1      3.70%    100.00% (Unspecified)
system.caches.L2Cache_Controller.MT_SB.L1_GETS::total           27                       (Unspecified)
system.caches.L2Cache_Controller.MT_SB.L1_UPGRADE |           0      0.00%      0.00% |           0      0.00%      0.00% |           0      0.00%      0.00% |           0      0.00%      0.00% |           0      0.00%      0.00% |           0      0.00%      0.00% |         110    100.00%    100.00% |           0      0.00%    100.00% (Unspecified)
system.caches.L2Cache_Controller.MT_SB.L1_UPGRADE::total          110                       (Unspecified)
system.caches.L2Cache_Controller.MT_SB.Unblock |         648     16.92%     16.92% |         525     13.71%     30.63% |         450     11.75%     42.38% |         399     10.42%     52.79% |         350      9.14%     61.93% |         326      8.51%     70.44% |         799     20.86%     91.31% |         333      8.69%    100.00% (Unspecified)
system.caches.L2Cache_Controller.MT_SB.Unblock::total         3830                       (Unspecified)
system.caches.RequestType.LD.latency_hist_seqr::bucket_size         1024                       (Unspecified)
system.caches.RequestType.LD.latency_hist_seqr::max_bucket        10239                       (Unspecified)
system.caches.RequestType.LD.latency_hist_seqr::samples     67923077                       (Unspecified)
system.caches.RequestType.LD.latency_hist_seqr::mean    65.247769                       (Unspecified)
system.caches.RequestType.LD.latency_hist_seqr::gmean     1.585440                       (Unspecified)
system.caches.RequestType.LD.latency_hist_seqr::stdev   269.286245                       (Unspecified)
system.caches.RequestType.LD.latency_hist_seqr |    66396509     97.75%     97.75% |     1340957      1.97%     99.73% |      172048      0.25%     99.98% |       12957      0.02%    100.00% |         567      0.00%    100.00% |          38      0.00%    100.00% |           1      0.00%    100.00% |           0      0.00%    100.00% |           0      0.00%    100.00% |           0      0.00%    100.00% (Unspecified)
system.caches.RequestType.LD.latency_hist_seqr::total     67923077                       (Unspecified)
system.caches.RequestType.LD.hit_latency_hist_seqr::bucket_size            1                       (Unspecified)
system.caches.RequestType.LD.hit_latency_hist_seqr::max_bucket            9                       (Unspecified)
system.caches.RequestType.LD.hit_latency_hist_seqr::samples     63253181                       (Unspecified)
system.caches.RequestType.LD.hit_latency_hist_seqr::mean     1.000982                       (Unspecified)
system.caches.RequestType.LD.hit_latency_hist_seqr::gmean     1.000681                       (Unspecified)
system.caches.RequestType.LD.hit_latency_hist_seqr::stdev     0.031320                       (Unspecified)
system.caches.RequestType.LD.hit_latency_hist_seqr |           0      0.00%      0.00% |    63191071     99.90%     99.90% |       62110      0.10%    100.00% |           0      0.00%    100.00% |           0      0.00%    100.00% |           0      0.00%    100.00% |           0      0.00%    100.00% |           0      0.00%    100.00% |           0      0.00%    100.00% |           0      0.00%    100.00% (Unspecified)
system.caches.RequestType.LD.hit_latency_hist_seqr::total     63253181                       (Unspecified)
system.caches.RequestType.LD.miss_latency_hist_seqr::bucket_size         1024                       (Unspecified)
system.caches.RequestType.LD.miss_latency_hist_seqr::max_bucket        10239                       (Unspecified)
system.caches.RequestType.LD.miss_latency_hist_seqr::samples      4669896                       (Unspecified)
system.caches.RequestType.LD.miss_latency_hist_seqr::mean   935.462795                       (Unspecified)
system.caches.RequestType.LD.miss_latency_hist_seqr::gmean   807.514573                       (Unspecified)
system.caches.RequestType.LD.miss_latency_hist_seqr::stdev   491.467677                       (Unspecified)
system.caches.RequestType.LD.miss_latency_hist_seqr |     3143328     67.31%     67.31% |     1340957     28.71%     96.03% |      172048      3.68%     99.71% |       12957      0.28%     99.99% |         567      0.01%    100.00% |          38      0.00%    100.00% |           1      0.00%    100.00% |           0      0.00%    100.00% |           0      0.00%    100.00% |           0      0.00%    100.00% (Unspecified)
system.caches.RequestType.LD.miss_latency_hist_seqr::total      4669896                       (Unspecified)
system.caches.RequestType.ST.latency_hist_seqr::bucket_size         1024                       (Unspecified)
system.caches.RequestType.ST.latency_hist_seqr::max_bucket        10239                       (Unspecified)
system.caches.RequestType.ST.latency_hist_seqr::samples     69556317                       (Unspecified)
system.caches.RequestType.ST.latency_hist_seqr::mean    24.723596                       (Unspecified)
system.caches.RequestType.ST.latency_hist_seqr::gmean     1.220996                       (Unspecified)
system.caches.RequestType.ST.latency_hist_seqr::stdev   157.077826                       (Unspecified)
system.caches.RequestType.ST.latency_hist_seqr |    69056612     99.28%     99.28% |      443869      0.64%     99.92% |       52905      0.08%    100.00% |        2745      0.00%    100.00% |         176      0.00%    100.00% |          10      0.00%    100.00% |           0      0.00%    100.00% |           0      0.00%    100.00% |           0      0.00%    100.00% |           0      0.00%    100.00% (Unspecified)
system.caches.RequestType.ST.latency_hist_seqr::total     69556317                       (Unspecified)
system.caches.RequestType.ST.hit_latency_hist_seqr::bucket_size          256                       (Unspecified)
system.caches.RequestType.ST.hit_latency_hist_seqr::max_bucket         2559                       (Unspecified)
system.caches.RequestType.ST.hit_latency_hist_seqr::samples     67528153                       (Unspecified)
system.caches.RequestType.ST.hit_latency_hist_seqr::mean     1.012047                       (Unspecified)
system.caches.RequestType.ST.hit_latency_hist_seqr::gmean     1.008178                       (Unspecified)
system.caches.RequestType.ST.hit_latency_hist_seqr::stdev     0.485401                       (Unspecified)
system.caches.RequestType.ST.hit_latency_hist_seqr |    67528128    100.00%    100.00% |          13      0.00%    100.00% |           5      0.00%    100.00% |           4      0.00%    100.00% |           2      0.00%    100.00% |           0      0.00%    100.00% |           0      0.00%    100.00% |           0      0.00%    100.00% |           1      0.00%    100.00% |           0      0.00%    100.00% (Unspecified)
system.caches.RequestType.ST.hit_latency_hist_seqr::total     67528153                       (Unspecified)
system.caches.RequestType.ST.miss_latency_hist_seqr::bucket_size         1024                       (Unspecified)
system.caches.RequestType.ST.miss_latency_hist_seqr::max_bucket        10239                       (Unspecified)
system.caches.RequestType.ST.miss_latency_hist_seqr::samples      2028164                       (Unspecified)
system.caches.RequestType.ST.miss_latency_hist_seqr::mean   814.204673                       (Unspecified)
system.caches.RequestType.ST.miss_latency_hist_seqr::gmean   717.967215                       (Unspecified)
system.caches.RequestType.ST.miss_latency_hist_seqr::stdev   451.855132                       (Unspecified)
system.caches.RequestType.ST.miss_latency_hist_seqr |     1528462     75.36%     75.36% |      443867     21.89%     97.25% |       52904      2.61%     99.86% |        2745      0.14%     99.99% |         176      0.01%    100.00% |          10      0.00%    100.00% |           0      0.00%    100.00% |           0      0.00%    100.00% |           0      0.00%    100.00% |           0      0.00%    100.00% (Unspecified)
system.caches.RequestType.ST.miss_latency_hist_seqr::total      2028164                       (Unspecified)
system.caches.RequestType.IFETCH.latency_hist_seqr::bucket_size          512                       (Unspecified)
system.caches.RequestType.IFETCH.latency_hist_seqr::max_bucket         5119                       (Unspecified)
system.caches.RequestType.IFETCH.latency_hist_seqr::samples     40775879                       (Unspecified)
system.caches.RequestType.IFETCH.latency_hist_seqr::mean     1.390349                       (Unspecified)
system.caches.RequestType.IFETCH.latency_hist_seqr::gmean     1.011604                       (Unspecified)
system.caches.RequestType.IFETCH.latency_hist_seqr::stdev    14.686228                       (Unspecified)
system.caches.RequestType.IFETCH.latency_hist_seqr |    40770462     99.99%     99.99% |        3387      0.01%    100.00% |        1444      0.00%    100.00% |         425      0.00%    100.00% |         121      0.00%    100.00% |          33      0.00%    100.00% |           7      0.00%    100.00% |           0      0.00%    100.00% |           0      0.00%    100.00% |           0      0.00%    100.00% (Unspecified)
system.caches.RequestType.IFETCH.latency_hist_seqr::total     40775879                       (Unspecified)
system.caches.RequestType.IFETCH.hit_latency_hist_seqr::bucket_size            1                       (Unspecified)
system.caches.RequestType.IFETCH.hit_latency_hist_seqr::max_bucket            9                       (Unspecified)
system.caches.RequestType.IFETCH.hit_latency_hist_seqr::samples     40645421                       (Unspecified)
system.caches.RequestType.IFETCH.hit_latency_hist_seqr::mean     1.000000                       (Unspecified)
system.caches.RequestType.IFETCH.hit_latency_hist_seqr::gmean     1.000000                       (Unspecified)
system.caches.RequestType.IFETCH.hit_latency_hist_seqr::stdev     0.000587                       (Unspecified)
[...]
system.o3Cpu7.iew.predictedTakenIncorrect         8040                       # Number of branches that were predicted taken incorrectly (Count)
system.o3Cpu7.iew.predictedNotTakenIncorrect         2992                       # Number of branches that were predicted not taken incorrectly (Count)
system.o3Cpu7.iew.branchMispredicts             11032                       # Number of branch mispredicts detected at execute (Count)
system.o3Cpu7.iew.instsToCommit              63112745                       # Cumulative count of insts sent to commit (Count)
system.o3Cpu7.iew.writebackCount             63111232                       # Cumulative count of insts written-back (Count)
system.o3Cpu7.iew.producerInst               39095066                       # Number of instructions producing a value (Count)
system.o3Cpu7.iew.consumerInst               58064015                       # Number of instructions consuming a value (Count)
system.o3Cpu7.iew.wbRate                     0.163089                       # Insts written-back per cycle ((Count/Cycle))
system.o3Cpu7.iew.wbFanout                   0.673310                       # Average fanout of values written-back ((Count/Count))
system.o3Cpu7.interrupts.clk_domain.clock         3200                       # Clock period in ticks (Tick)
system.o3Cpu7.lsq0.forwLoads                   140483                       # Number of loads that had data forwarded from stores (Count)
system.o3Cpu7.lsq0.squashedLoads                15503                       # Number of loads squashed (Count)
system.o3Cpu7.lsq0.ignoredResponses                 5                       # Number of memory responses ignored because the instruction is squashed (Count)
system.o3Cpu7.lsq0.memOrderViolation              787                       # Number of memory ordering violations (Count)
system.o3Cpu7.lsq0.squashedStores               15036                       # Number of stores squashed (Count)
system.o3Cpu7.lsq0.rescheduledLoads                63                       # Number of loads that were rescheduled (Count)
system.o3Cpu7.lsq0.blockedByCache                   4                       # Number of times an access to memory failed due to the cache being blocked (Count)
system.o3Cpu7.lsq0.loadToUse::samples        12555274                       # Distribution of cycle latency between the first time a load is issued and its completion (Unspecified)
system.o3Cpu7.lsq0.loadToUse::mean         163.020740                       # Distribution of cycle latency between the first time a load is issued and its completion (Unspecified)
system.o3Cpu7.lsq0.loadToUse::stdev        386.855030                       # Distribution of cycle latency between the first time a load is issued and its completion (Unspecified)
system.o3Cpu7.lsq0.loadToUse::0-9             9967910     79.39%     79.39% # Distribution of cycle latency between the first time a load is issued and its completion (Unspecified)
system.o3Cpu7.lsq0.loadToUse::10-19             14923      0.12%     79.51% # Distribution of cycle latency between the first time a load is issued and its completion (Unspecified)
system.o3Cpu7.lsq0.loadToUse::20-29             24499      0.20%     79.71% # Distribution of cycle latency between the first time a load is issued and its completion (Unspecified)
system.o3Cpu7.lsq0.loadToUse::30-39             29730      0.24%     79.94% # Distribution of cycle latency between the first time a load is issued and its completion (Unspecified)
system.o3Cpu7.lsq0.loadToUse::40-49             22398      0.18%     80.12% # Distribution of cycle latency between the first time a load is issued and its completion (Unspecified)
system.o3Cpu7.lsq0.loadToUse::50-59              8634      0.07%     80.19% # Distribution of cycle latency between the first time a load is issued and its completion (Unspecified)
system.o3Cpu7.lsq0.loadToUse::60-69              3922      0.03%     80.22% # Distribution of cycle latency between the first time a load is issued and its completion (Unspecified)
system.o3Cpu7.lsq0.loadToUse::70-79             11595      0.09%     80.31% # Distribution of cycle latency between the first time a load is issued and its completion (Unspecified)
system.o3Cpu7.lsq0.loadToUse::80-89             13784      0.11%     80.42% # Distribution of cycle latency between the first time a load is issued and its completion (Unspecified)
system.o3Cpu7.lsq0.loadToUse::90-99             12186      0.10%     80.52% # Distribution of cycle latency between the first time a load is issued and its completion (Unspecified)
system.o3Cpu7.lsq0.loadToUse::100-109            6261      0.05%     80.57% # Distribution of cycle latency between the first time a load is issued and its completion (Unspecified)
system.o3Cpu7.lsq0.loadToUse::110-119            3545      0.03%     80.60% # Distribution of cycle latency between the first time a load is issued and its completion (Unspecified)
system.o3Cpu7.lsq0.loadToUse::120-129            8739      0.07%     80.67% # Distribution of cycle latency between the first time a load is issued and its completion (Unspecified)
system.o3Cpu7.lsq0.loadToUse::130-139           11221      0.09%     80.76% # Distribution of cycle latency between the first time a load is issued and its completion (Unspecified)
system.o3Cpu7.lsq0.loadToUse::140-149           11697      0.09%     80.85% # Distribution of cycle latency between the first time a load is issued and its completion (Unspecified)
system.o3Cpu7.lsq0.loadToUse::150-159            5878      0.05%     80.90% # Distribution of cycle latency between the first time a load is issued and its completion (Unspecified)
system.o3Cpu7.lsq0.loadToUse::160-169            4110      0.03%     80.93% # Distribution of cycle latency between the first time a load is issued and its completion (Unspecified)
system.o3Cpu7.lsq0.loadToUse::170-179            8605      0.07%     81.00% # Distribution of cycle latency between the first time a load is issued and its completion (Unspecified)
system.o3Cpu7.lsq0.loadToUse::180-189           11016      0.09%     81.09% # Distribution of cycle latency between the first time a load is issued and its completion (Unspecified)
system.o3Cpu7.lsq0.loadToUse::190-199           11336      0.09%     81.18% # Distribution of cycle latency between the first time a load is issued and its completion (Unspecified)
system.o3Cpu7.lsq0.loadToUse::200-209            8634      0.07%     81.25% # Distribution of cycle latency between the first time a load is issued and its completion (Unspecified)
system.o3Cpu7.lsq0.loadToUse::210-219            5964      0.05%     81.29% # Distribution of cycle latency between the first time a load is issued and its completion (Unspecified)
system.o3Cpu7.lsq0.loadToUse::220-229           10999      0.09%     81.38% # Distribution of cycle latency between the first time a load is issued and its completion (Unspecified)
system.o3Cpu7.lsq0.loadToUse::230-239           12565      0.10%     81.48% # Distribution of cycle latency between the first time a load is issued and its completion (Unspecified)
system.o3Cpu7.lsq0.loadToUse::240-249           11621      0.09%     81.57% # Distribution of cycle latency between the first time a load is issued and its completion (Unspecified)
system.o3Cpu7.lsq0.loadToUse::250-259            9009      0.07%     81.65% # Distribution of cycle latency between the first time a load is issued and its completion (Unspecified)
system.o3Cpu7.lsq0.loadToUse::260-269            8735      0.07%     81.71% # Distribution of cycle latency between the first time a load is issued and its completion (Unspecified)
system.o3Cpu7.lsq0.loadToUse::270-279           20009      0.16%     81.87% # Distribution of cycle latency between the first time a load is issued and its completion (Unspecified)
system.o3Cpu7.lsq0.loadToUse::280-289           37202      0.30%     82.17% # Distribution of cycle latency between the first time a load is issued and its completion (Unspecified)
system.o3Cpu7.lsq0.loadToUse::290-299           32240      0.26%     82.43% # Distribution of cycle latency between the first time a load is issued and its completion (Unspecified)
system.o3Cpu7.lsq0.loadToUse::overflows       2206307     17.57%    100.00% # Distribution of cycle latency between the first time a load is issued and its completion (Unspecified)
system.o3Cpu7.lsq0.loadToUse::min_value             2                       # Distribution of cycle latency between the first time a load is issued and its completion (Unspecified)
system.o3Cpu7.lsq0.loadToUse::max_value          6517                       # Distribution of cycle latency between the first time a load is issued and its completion (Unspecified)
system.o3Cpu7.lsq0.loadToUse::total          12555274                       # Distribution of cycle latency between the first time a load is issued and its completion (Unspecified)
system.o3Cpu7.mmu.dtb.rdAccesses             12570491                       # TLB accesses on read requests (Count)
system.o3Cpu7.mmu.dtb.wrAccesses              8744563                       # TLB accesses on write requests (Count)
system.o3Cpu7.mmu.dtb.rdMisses                   4015                       # TLB misses on read requests (Count)
system.o3Cpu7.mmu.dtb.wrMisses                   1699                       # TLB misses on write requests (Count)
system.o3Cpu7.mmu.dtb.walker.power_state.pwrStateResidencyTicks::UNDEFINED  78674821400                       # Cumulative time (in ticks) in various power states (Tick)
system.o3Cpu7.mmu.itb.rdAccesses                    0                       # TLB accesses on read requests (Count)
system.o3Cpu7.mmu.itb.wrAccesses              5173702                       # TLB accesses on write requests (Count)
system.o3Cpu7.mmu.itb.rdMisses                      0                       # TLB misses on read requests (Count)
system.o3Cpu7.mmu.itb.wrMisses                    259                       # TLB misses on write requests (Count)
system.o3Cpu7.mmu.itb.walker.power_state.pwrStateResidencyTicks::UNDEFINED  78674821400                       # Cumulative time (in ticks) in various power states (Tick)
system.o3Cpu7.power_state.numTransitions            2                       # Number of power state transitions (Count)
system.o3Cpu7.power_state.ticksClkGated::samples            1                       # Distribution of time spent in the clock gated state (Tick)
system.o3Cpu7.power_state.ticksClkGated::mean    267963200                       # Distribution of time spent in the clock gated state (Tick)
system.o3Cpu7.power_state.ticksClkGated::1000-5e+10            1    100.00%    100.00% # Distribution of time spent in the clock gated state (Tick)
system.o3Cpu7.power_state.ticksClkGated::min_value    267963200                       # Distribution of time spent in the clock gated state (Tick)
system.o3Cpu7.power_state.ticksClkGated::max_value    267963200                       # Distribution of time spent in the clock gated state (Tick)
system.o3Cpu7.power_state.ticksClkGated::total            1                       # Distribution of time spent in the clock gated state (Tick)
system.o3Cpu7.power_state.pwrStateResidencyTicks::ON  75333372000                       # Cumulative time (in ticks) in various power states (Tick)
system.o3Cpu7.power_state.pwrStateResidencyTicks::CLK_GATED    267963200                       # Cumulative time (in ticks) in various power states (Tick)
system.o3Cpu7.power_state.pwrStateResidencyTicks::OFF   3073486200                       # Cumulative time (in ticks) in various power states (Tick)
system.o3Cpu7.rename.squashCycles               11744                       # Number of cycles rename is squashing (Cycle)
system.o3Cpu7.rename.idleCycles               5958313                       # Number of cycles rename is idle (Cycle)
system.o3Cpu7.rename.blockCycles            186526957                       # Number of cycles rename is blocking (Cycle)
system.o3Cpu7.rename.serializeStallCycles       959776                       # count of cycles rename stalled for serializing inst (Cycle)
system.o3Cpu7.rename.runCycles               15299581                       # Number of cycles rename is running (Cycle)
system.o3Cpu7.rename.unblockCycles          177341389                       # Number of cycles rename is unblocking (Cycle)
system.o3Cpu7.rename.renamedInsts            63213404                       # Number of instructions processed by rename (Count)
system.o3Cpu7.rename.ROBFullEvents             164064                       # Number of times rename has blocked due to ROB full (Count)
system.o3Cpu7.rename.IQFullEvents            26111266                       # Number of times rename has blocked due to IQ full (Count)
system.o3Cpu7.rename.LQFullEvents            65411104                       # Number of times rename has blocked due to LQ full (Count)
system.o3Cpu7.rename.SQFullEvents           109695278                       # Number of times rename has blocked due to SQ full (Count)
system.o3Cpu7.rename.fullRegistersEvents            1                       # Number of times there has been no free registers (Count)
system.o3Cpu7.rename.renamedOperands         82794574                       # Number of destination operands rename has renamed (Count)
system.o3Cpu7.rename.lookups                192816887                       # Number of register rename lookups that rename has made (Count)
system.o3Cpu7.rename.intLookups              47898419                       # Number of integer rename lookups (Count)
system.o3Cpu7.rename.fpLookups               52494342                       # Number of floating rename lookups (Count)
system.o3Cpu7.rename.committedMaps           82472822                       # Number of HB maps that are committed (Count)
system.o3Cpu7.rename.undoneMaps                321752                       # Number of HB maps that are undone due to squashing (Count)
system.o3Cpu7.rename.serializing                 3228                       # count of serializing insts renamed (Count)
system.o3Cpu7.rename.tempSerializing             3317                       # count of temporary serializing insts renamed (Count)
system.o3Cpu7.rename.skidInsts                9972299                       # count of insts added to the skid buffer (Count)
system.o3Cpu7.rob.reads                     437742982                       # The number of ROB reads (Count)
system.o3Cpu7.rob.writes                    126378713                       # The number of ROB writes (Count)
system.o3Cpu7.thread_0.numInsts              37930457                       # Number of Instructions committed (Count)
system.o3Cpu7.thread_0.numOps                63045658                       # Number of Ops committed (Count)
system.o3Cpu7.thread_0.numMemRefs                   0                       # Number of Memory References (Count)
system.pc.bad_addr.power_state.pwrStateResidencyTicks::UNDEFINED  78674821400                       # Cumulative time (in ticks) in various power states (Tick)
system.pc.com_1.power_state.pwrStateResidencyTicks::UNDEFINED  78674821400                       # Cumulative time (in ticks) in various power states (Tick)
system.pc.default_bus.power_state.pwrStateResidencyTicks::UNDEFINED  78674821400                       # Cumulative time (in ticks) in various power states (Tick)
system.pc.empty_isa.power_state.pwrStateResidencyTicks::UNDEFINED  78674821400                       # Cumulative time (in ticks) in various power states (Tick)
system.pc.fake_com_2.power_state.pwrStateResidencyTicks::UNDEFINED  78674821400                       # Cumulative time (in ticks) in various power states (Tick)
system.pc.fake_com_3.power_state.pwrStateResidencyTicks::UNDEFINED  78674821400                       # Cumulative time (in ticks) in various power states (Tick)
system.pc.fake_com_4.power_state.pwrStateResidencyTicks::UNDEFINED  78674821400                       # Cumulative time (in ticks) in various power states (Tick)
system.pc.fake_floppy.power_state.pwrStateResidencyTicks::UNDEFINED  78674821400                       # Cumulative time (in ticks) in various power states (Tick)
system.pc.pci_host.power_state.pwrStateResidencyTicks::UNDEFINED  78674821400                       # Cumulative time (in ticks) in various power states (Tick)
system.pc.south_bridge.cmos.power_state.pwrStateResidencyTicks::UNDEFINED  78674821400                       # Cumulative time (in ticks) in various power states (Tick)
system.pc.south_bridge.dma1.power_state.pwrStateResidencyTicks::UNDEFINED  78674821400                       # Cumulative time (in ticks) in various power states (Tick)
system.pc.south_bridge.ide.disks0.IdeDisk.dmaReadFullPages            0                       # Number of full page size DMA reads (not PRD). (Count)
system.pc.south_bridge.ide.disks0.IdeDisk.dmaReadBytes            0                       # Number of bytes transfered via DMA reads (not PRD). (Byte)
system.pc.south_bridge.ide.disks0.IdeDisk.dmaReadTxs            0                       # Number of DMA read transactions (not PRD). (Count)
system.pc.south_bridge.ide.disks0.IdeDisk.dmaWriteFullPages            0                       # Number of full page size DMA writes. (Count)
system.pc.south_bridge.ide.disks0.IdeDisk.dmaWriteBytes            0                       # Number of bytes transfered via DMA writes. (Byte)
system.pc.south_bridge.ide.disks0.IdeDisk.dmaWriteTxs            0                       # Number of DMA write transactions. (Count)
system.pc.south_bridge.ide.disks1.IdeDisk.dmaReadFullPages            0                       # Number of full page size DMA reads (not PRD). (Count)
system.pc.south_bridge.ide.disks1.IdeDisk.dmaReadBytes            0                       # Number of bytes transfered via DMA reads (not PRD). (Byte)
system.pc.south_bridge.ide.disks1.IdeDisk.dmaReadTxs            0                       # Number of DMA read transactions (not PRD). (Count)
system.pc.south_bridge.ide.disks1.IdeDisk.dmaWriteFullPages            0                       # Number of full page size DMA writes. (Count)
system.pc.south_bridge.ide.disks1.IdeDisk.dmaWriteBytes            0                       # Number of bytes transfered via DMA writes. (Byte)
system.pc.south_bridge.ide.disks1.IdeDisk.dmaWriteTxs            0                       # Number of DMA write transactions. (Count)
system.pc.south_bridge.ide.power_state.pwrStateResidencyTicks::UNDEFINED  78674821400                       # Cumulative time (in ticks) in various power states (Tick)
system.pc.south_bridge.io_apic.power_state.pwrStateResidencyTicks::UNDEFINED  78674821400                       # Cumulative time (in ticks) in various power states (Tick)
system.pc.south_bridge.keyboard.power_state.pwrStateResidencyTicks::UNDEFINED  78674821400                       # Cumulative time (in ticks) in various power states (Tick)
system.pc.south_bridge.pic1.power_state.pwrStateResidencyTicks::UNDEFINED  78674821400                       # Cumulative time (in ticks) in various power states (Tick)
system.pc.south_bridge.pic2.power_state.pwrStateResidencyTicks::UNDEFINED  78674821400                       # Cumulative time (in ticks) in various power states (Tick)
system.pc.south_bridge.pit.power_state.pwrStateResidencyTicks::UNDEFINED  78674821400                       # Cumulative time (in ticks) in various power states (Tick)
system.pc.south_bridge.speaker.power_state.pwrStateResidencyTicks::UNDEFINED  78674821400                       # Cumulative time (in ticks) in various power states (Tick)
system.workload.inst.arm                            0                       # number of arm instructions executed (Count)
system.workload.inst.quiesce                        0                       # number of quiesce instructions executed (Count)

---------- End Simulation Statistics   ----------
