
---------- Begin Simulation Statistics ----------
simSeconds                                   0.027353                       # Number of seconds simulated (Second)
simTicks                                  27353219760                       # Number of ticks simulated (Tick)
finalTick                                264580039986400                       # Number of ticks from beginning of simulation (restored from checkpoints and never reset) (Tick)
simFreq                                  1000000000000                       # The number of ticks per simulated second ((Tick/Second))
hostSeconds                                   8775.95                       # Real time elapsed on the host (Second)
hostTickRate                                  3116838                       # The number of ticks simulated per host second (ticks/s) ((Tick/Second))
hostMemory                                   20021868                       # Number of bytes of host memory used (Byte)
simInsts                                    345356784                       # Number of instructions simulated (Count)
simOps                                      578913016                       # Number of ops (including micro ops) simulated (Count)
hostInstRate                                    39353                       # Simulator instruction rate (inst/s) ((Count/Second))
hostOpRate                                      65966                       # Simulator op (including micro ops) rate (op/s) ((Count/Second))
system.caches.delayHistogram::bucket_size          256                       # delay histogram for all message (Unspecified)
system.caches.delayHistogram::max_bucket         2559                       # delay histogram for all message (Unspecified)
system.caches.delayHistogram::samples        26119652                       # delay histogram for all message (Unspecified)
system.caches.delayHistogram::mean           0.270296                       # delay histogram for all message (Unspecified)
system.caches.delayHistogram::stdev          1.632418                       # delay histogram for all message (Unspecified)
system.caches.delayHistogram             |    26119639    100.00%    100.00% |           9      0.00%    100.00% |           1      0.00%    100.00% |           1      0.00%    100.00% |           1      0.00%    100.00% |           1      0.00%    100.00% |           0      0.00%    100.00% |           0      0.00%    100.00% |           0      0.00%    100.00% |           0      0.00%    100.00% # delay histogram for all message (Unspecified)
system.caches.delayHistogram::total          26119652                       # delay histogram for all message (Unspecified)
system.caches.m_outstandReqHistSeqr::bucket_size            2                       (Unspecified)
system.caches.m_outstandReqHistSeqr::max_bucket           19                       (Unspecified)
system.caches.m_outstandReqHistSeqr::samples    198337462                       (Unspecified)
system.caches.m_outstandReqHistSeqr::mean     4.459744                       (Unspecified)
system.caches.m_outstandReqHistSeqr::gmean     2.926509                       (Unspecified)
system.caches.m_outstandReqHistSeqr::stdev     4.209039                       (Unspecified)
system.caches.m_outstandReqHistSeqr      |    59984873     30.24%     30.24% |    55069831     27.77%     58.01% |    27333114     13.78%     71.79% |    14564802      7.34%     79.13% |    11541399      5.82%     84.95% |     9717062      4.90%     89.85% |     7951443      4.01%     93.86% |     6691697      3.37%     97.24% |     5483241      2.76%    100.00% |           0      0.00%    100.00% (Unspecified)
system.caches.m_outstandReqHistSeqr::total    198337462                       (Unspecified)
system.caches.m_latencyHistSeqr::bucket_size          512                       (Unspecified)
system.caches.m_latencyHistSeqr::max_bucket         5119                       (Unspecified)
system.caches.m_latencyHistSeqr::samples    198478867                       (Unspecified)
system.caches.m_latencyHistSeqr::mean        9.608719                       (Unspecified)
system.caches.m_latencyHistSeqr::gmean       1.124986                       (Unspecified)
system.caches.m_latencyHistSeqr::stdev      74.309787                       (Unspecified)
system.caches.m_latencyHistSeqr          |   197480537     99.50%     99.50% |      911167      0.46%     99.96% |       32942      0.02%     99.97% |       11983      0.01%     99.98% |       34314      0.02%    100.00% |        7223      0.00%    100.00% |         599      0.00%    100.00% |          78      0.00%    100.00% |          21      0.00%    100.00% |           3      0.00%    100.00% (Unspecified)
system.caches.m_latencyHistSeqr::total      198478867                       (Unspecified)
system.caches.m_hitLatencyHistSeqr::bucket_size          256                       (Unspecified)
system.caches.m_hitLatencyHistSeqr::max_bucket         2559                       (Unspecified)
system.caches.m_hitLatencyHistSeqr::samples    194229534                       (Unspecified)
system.caches.m_hitLatencyHistSeqr::mean     1.002452                       (Unspecified)
system.caches.m_hitLatencyHistSeqr::gmean     1.001454                       (Unspecified)
system.caches.m_hitLatencyHistSeqr::stdev     0.452827                       (Unspecified)
system.caches.m_hitLatencyHistSeqr       |   194229406    100.00%    100.00% |          93      0.00%    100.00% |          24      0.00%    100.00% |           8      0.00%    100.00% |           1      0.00%    100.00% |           0      0.00%    100.00% |           0      0.00%    100.00% |           1      0.00%    100.00% |           1      0.00%    100.00% |           0      0.00%    100.00% (Unspecified)
system.caches.m_hitLatencyHistSeqr::total    194229534                       (Unspecified)
system.caches.m_missLatencyHistSeqr::bucket_size          512                       (Unspecified)
system.caches.m_missLatencyHistSeqr::max_bucket         5119                       (Unspecified)
system.caches.m_missLatencyHistSeqr::samples      4249333                       (Unspecified)
system.caches.m_missLatencyHistSeqr::mean   402.986051                       (Unspecified)
system.caches.m_missLatencyHistSeqr::gmean   229.166554                       (Unspecified)
system.caches.m_missLatencyHistSeqr::stdev   315.879288                       (Unspecified)
system.caches.m_missLatencyHistSeqr      |     3251038     76.51%     76.51% |      911135     21.44%     97.95% |       32941      0.78%     98.72% |       11982      0.28%     99.01% |       34313      0.81%     99.81% |        7223      0.17%     99.98% |         599      0.01%    100.00% |          78      0.00%    100.00% |          21      0.00%    100.00% |           3      0.00%    100.00% (Unspecified)
system.caches.m_missLatencyHistSeqr::total      4249333                       (Unspecified)
system.caches.delayVCHist.vnet_0::bucket_size          256                       # delay histogram for vnet_0 (Unspecified)
system.caches.delayVCHist.vnet_0::max_bucket         2559                       # delay histogram for vnet_0 (Unspecified)
system.caches.delayVCHist.vnet_0::samples     11159920                       # delay histogram for vnet_0 (Unspecified)
system.caches.delayVCHist.vnet_0::mean       0.488758                       # delay histogram for vnet_0 (Unspecified)
system.caches.delayVCHist.vnet_0::stdev      2.151620                       # delay histogram for vnet_0 (Unspecified)
system.caches.delayVCHist.vnet_0         |    11159907    100.00%    100.00% |           9      0.00%    100.00% |           1      0.00%    100.00% |           1      0.00%    100.00% |           1      0.00%    100.00% |           1      0.00%    100.00% |           0      0.00%    100.00% |           0      0.00%    100.00% |           0      0.00%    100.00% |           0      0.00%    100.00% # delay histogram for vnet_0 (Unspecified)
system.caches.delayVCHist.vnet_0::total      11159920                       # delay histogram for vnet_0 (Unspecified)
system.caches.delayVCHist.vnet_1::bucket_size           16                       # delay histogram for vnet_1 (Unspecified)
system.caches.delayVCHist.vnet_1::max_bucket          159                       # delay histogram for vnet_1 (Unspecified)
system.caches.delayVCHist.vnet_1::samples     14590986                       # delay histogram for vnet_1 (Unspecified)
system.caches.delayVCHist.vnet_1::mean       0.110021                       # delay histogram for vnet_1 (Unspecified)
system.caches.delayVCHist.vnet_1::stdev      1.079529                       # delay histogram for vnet_1 (Unspecified)
system.caches.delayVCHist.vnet_1         |    14577342     99.91%     99.91% |       11344      0.08%     99.98% |        1852      0.01%    100.00% |         358      0.00%    100.00% |          69      0.00%    100.00% |          12      0.00%    100.00% |           9      0.00%    100.00% |           0      0.00%    100.00% |           0      0.00%    100.00% |           0      0.00%    100.00% # delay histogram for vnet_1 (Unspecified)
system.caches.delayVCHist.vnet_1::total      14590986                       # delay histogram for vnet_1 (Unspecified)
system.caches.delayVCHist.vnet_2::bucket_size            1                       # delay histogram for vnet_2 (Unspecified)
system.caches.delayVCHist.vnet_2::max_bucket            9                       # delay histogram for vnet_2 (Unspecified)
system.caches.delayVCHist.vnet_2::samples       368746                       # delay histogram for vnet_2 (Unspecified)
system.caches.delayVCHist.vnet_2::mean       0.000629                       # delay histogram for vnet_2 (Unspecified)
system.caches.delayVCHist.vnet_2::stdev      0.036670                       # delay histogram for vnet_2 (Unspecified)
system.caches.delayVCHist.vnet_2         |      368634     99.97%     99.97% |           0      0.00%     99.97% |         108      0.03%    100.00% |           0      0.00%    100.00% |           4      0.00%    100.00% |           0      0.00%    100.00% |           0      0.00%    100.00% |           0      0.00%    100.00% |           0      0.00%    100.00% |           0      0.00%    100.00% # delay histogram for vnet_2 (Unspecified)
system.caches.delayVCHist.vnet_2::total        368746                       # delay histogram for vnet_2 (Unspecified)
system.caches.L1Cache_Controller.Load    |    13763860     12.80%     12.80% |    13994275     13.01%     25.81% |    13028859     12.12%     37.93% |    13098777     12.18%     50.11% |    12908989     12.00%     62.12% |    13404707     12.47%     74.58% |    13657791     12.70%     87.28% |    13675614     12.72%    100.00% (Unspecified)
system.caches.L1Cache_Controller.Load::total    107532872                       (Unspecified)
system.caches.L1Cache_Controller.Ifetch  |     9603777     12.48%     12.48% |     9585423     12.46%     24.94% |     9602580     12.48%     37.42% |     9575570     12.44%     49.86% |     9720405     12.63%     62.49% |     9647207     12.54%     75.03% |     9612618     12.49%     87.52% |     9599344     12.48%    100.00% (Unspecified)
system.caches.L1Cache_Controller.Ifetch::total     76946924                       (Unspecified)
system.caches.L1Cache_Controller.Store   |     1711995     12.23%     12.23% |     1701792     12.16%     24.39% |     1922455     13.73%     38.12% |     1702737     12.16%     50.28% |     1816421     12.98%     63.26% |     1731386     12.37%     75.62% |     1708647     12.21%     87.83% |     1703661     12.17%    100.00% (Unspecified)
system.caches.L1Cache_Controller.Store::total     13999094                       (Unspecified)
system.caches.L1Cache_Controller.Inv     |       35878     12.08%     12.08% |       44393     14.94%     27.02% |       41549     13.99%     41.00% |       33088     11.14%     52.14% |       33248     11.19%     63.33% |       36696     12.35%     75.68% |       36193     12.18%     87.87% |       36047     12.13%    100.00% (Unspecified)
system.caches.L1Cache_Controller.Inv::total       297092                       (Unspecified)
system.caches.L1Cache_Controller.L1_Replacement |      514047     12.61%     12.61% |      502482     12.32%     24.93% |      532058     13.05%     37.98% |      501812     12.31%     50.29% |      504988     12.39%     62.68% |      513647     12.60%     75.27% |      504001     12.36%     87.64% |      504103     12.36%    100.00% (Unspecified)
system.caches.L1Cache_Controller.L1_Replacement::total      4077138                       (Unspecified)
system.caches.L1Cache_Controller.Fwd_GETX |         856     12.02%     12.02% |         853     11.98%     24.00% |        1077     15.12%     39.12% |         866     12.16%     51.28% |         873     12.26%     63.54% |         861     12.09%     75.62% |         864     12.13%     87.76% |         872     12.24%    100.00% (Unspecified)
system.caches.L1Cache_Controller.Fwd_GETX::total         7122                       (Unspecified)
system.caches.L1Cache_Controller.Fwd_GETS |        7214     11.18%     11.18% |        6358      9.85%     21.03% |       14049     21.77%     42.80% |        7516     11.65%     54.45% |        7808     12.10%     66.55% |        7188     11.14%     77.69% |        6994     10.84%     88.53% |        7405     11.47%    100.00% (Unspecified)
system.caches.L1Cache_Controller.Fwd_GETS::total        64532                       (Unspecified)
system.caches.L1Cache_Controller.Data    |         414     14.66%     14.66% |         550     19.48%     34.14% |         100      3.54%     37.68% |         312     11.05%     48.73% |         318     11.26%     59.99% |         399     14.13%     74.11% |         323     11.44%     85.55% |         408     14.45%    100.00% (Unspecified)
system.caches.L1Cache_Controller.Data::total         2824                       (Unspecified)
system.caches.L1Cache_Controller.Data_Exclusive |      399035     12.47%     12.47% |      393326     12.29%     24.76% |      403911     12.62%     37.39% |      399492     12.48%     49.87% |      400969     12.53%     62.40% |      403488     12.61%     75.01% |      400391     12.51%     87.52% |      399221     12.48%    100.00% (Unspecified)
system.caches.L1Cache_Controller.Data_Exclusive::total      3199833                       (Unspecified)
system.caches.L1Cache_Controller.DataS_fromL1 |        7457     11.56%     11.56% |       11502     17.82%     29.38% |        6529     10.12%     39.50% |        6431      9.97%     49.46% |        6623     10.26%     59.73% |       12074     18.71%     78.44% |        6718     10.41%     88.85% |        7198     11.15%    100.00% (Unspecified)
system.caches.L1Cache_Controller.DataS_fromL1::total        64532                       (Unspecified)
system.caches.L1Cache_Controller.Data_all_Acks |      118198     12.20%     12.20% |      118537     12.23%     24.43% |      145516     15.01%     39.44% |      115729     11.94%     51.38% |      118222     12.20%     63.58% |      118221     12.20%     75.78% |      116848     12.06%     87.84% |      117892     12.16%    100.00% (Unspecified)
system.caches.L1Cache_Controller.Data_all_Acks::total       969163                       (Unspecified)
system.caches.L1Cache_Controller.Ack     |        2534     17.31%     17.31% |        1852     12.65%     29.96% |        1649     11.27%     41.23% |        1484     10.14%     51.37% |        1556     10.63%     62.00% |        2598     17.75%     79.74% |        1452      9.92%     89.66% |        1513     10.34%    100.00% (Unspecified)
system.caches.L1Cache_Controller.Ack::total        14638                       (Unspecified)
system.caches.L1Cache_Controller.Ack_all |        2169     13.72%     13.72% |        2240     14.17%     27.90% |        1465      9.27%     37.17% |        1727     10.93%     48.09% |        1776     11.24%     59.33% |        2875     18.19%     77.52% |        1716     10.86%     88.38% |        1837     11.62%    100.00% (Unspecified)
system.caches.L1Cache_Controller.Ack_all::total        15805                       (Unspecified)
system.caches.L1Cache_Controller.WB_Ack  |      421828     12.70%     12.70% |      399990     12.05%     24.75% |      431903     13.01%     37.75% |      412731     12.43%     50.18% |      413556     12.45%     62.64% |      419630     12.64%     75.27% |      410997     12.38%     87.65% |      410086     12.35%    100.00% (Unspecified)
system.caches.L1Cache_Controller.WB_Ack::total      3320721                       (Unspecified)
system.caches.L1Cache_Controller.NP.Load |      477310     12.46%     12.46% |      477257     12.46%     24.92% |      480296     12.54%     37.45% |      475396     12.41%     49.86% |      479049     12.50%     62.37% |      486234     12.69%     75.06% |      477580     12.47%     87.52% |      477961     12.48%    100.00% (Unspecified)
system.caches.L1Cache_Controller.NP.Load::total      3831083                       (Unspecified)
system.caches.L1Cache_Controller.NP.Ifetch |        1827     10.88%     10.88% |        1395      8.31%     19.19% |        5592     33.31%     52.50% |        1341      7.99%     60.49% |        1922     11.45%     71.94% |        1644      9.79%     81.74% |        1512      9.01%     90.74% |        1554      9.26%    100.00% (Unspecified)
system.caches.L1Cache_Controller.NP.Ifetch::total        16787                       (Unspecified)
system.caches.L1Cache_Controller.NP.Store |       35508     11.59%     11.59% |       35195     11.49%     23.08% |       58684     19.16%     42.24% |       35172     11.48%     53.72% |       35155     11.48%     65.19% |       36288     11.85%     77.04% |       35170     11.48%     88.52% |       35166     11.48%    100.00% (Unspecified)
system.caches.L1Cache_Controller.NP.Store::total       306338                       (Unspecified)
system.caches.L1Cache_Controller.NP.Inv  |        9969     12.15%     12.15% |       10814     13.18%     25.32% |       11174     13.62%     38.94% |        8957     10.91%     49.85% |        9544     11.63%     61.48% |       13044     15.89%     77.37% |        8910     10.86%     88.23% |        9659     11.77%    100.00% (Unspecified)
system.caches.L1Cache_Controller.NP.Inv::total        82071                       (Unspecified)
system.caches.L1Cache_Controller.I.Load  |        7443     12.42%     12.42% |        7401     12.35%     24.76% |        8449     14.10%     38.86% |        7432     12.40%     51.26% |        7216     12.04%     63.30% |        7311     12.20%     75.50% |        7332     12.23%     87.73% |        7356     12.27%    100.00% (Unspecified)
system.caches.L1Cache_Controller.I.Load::total        59940                       (Unspecified)
system.caches.L1Cache_Controller.I.Ifetch |        2263     14.09%     14.09% |        1928     12.00%     26.09% |        2205     13.73%     39.81% |        1865     11.61%     51.42% |        2000     12.45%     63.87% |        1951     12.14%     76.02% |        1939     12.07%     88.09% |        1914     11.91%    100.00% (Unspecified)
system.caches.L1Cache_Controller.I.Ifetch::total        16065                       (Unspecified)
system.caches.L1Cache_Controller.I.Store |         755     12.26%     12.26% |         741     12.04%     24.30% |         831     13.50%     37.79% |         761     12.36%     50.15% |         791     12.85%     63.00% |         757     12.29%     75.30% |         750     12.18%     87.48% |         771     12.52%    100.00% (Unspecified)
system.caches.L1Cache_Controller.I.Store::total         6157                       (Unspecified)
system.caches.L1Cache_Controller.I.L1_Replacement |       15203     11.61%     11.61% |       23217     17.73%     29.34% |       18569     14.18%     43.51% |       13892     10.61%     54.12% |       13425     10.25%     64.37% |       13461     10.28%     74.65% |       17033     13.01%     87.66% |       16167     12.34%    100.00% (Unspecified)
system.caches.L1Cache_Controller.I.L1_Replacement::total       130967                       (Unspecified)
system.caches.L1Cache_Controller.S.Load  |     8675567     13.19%     13.19% |     8935429     13.59%     26.78% |     7732521     11.76%     38.53% |     7875861     11.98%     50.51% |     7574524     11.52%     62.03% |     8103852     12.32%     74.35% |     8416355     12.80%     87.14% |     8454980     12.86%    100.00% (Unspecified)
system.caches.L1Cache_Controller.S.Load::total     65769089                       (Unspecified)
system.caches.L1Cache_Controller.S.Ifetch |     9599687     12.48%     12.48% |     9582100     12.46%     24.94% |     9594781     12.47%     37.41% |     9572364     12.45%     49.86% |     9716483     12.63%     62.49% |     9643612     12.54%     75.03% |     9609167     12.49%     87.52% |     9595876     12.48%    100.00% (Unspecified)
system.caches.L1Cache_Controller.S.Ifetch::total     76914070                       (Unspecified)
system.caches.L1Cache_Controller.S.Store |        1755     13.52%     13.52% |        1691     13.02%     26.54% |        1365     10.51%     37.05% |        1415     10.90%     47.95% |        1459     11.24%     59.19% |        2476     19.07%     78.26% |        1394     10.74%     88.99% |        1429     11.01%    100.00% (Unspecified)
system.caches.L1Cache_Controller.S.Store::total        12984                       (Unspecified)
system.caches.L1Cache_Controller.S.Inv   |       11353     11.65%     11.65% |       13536     13.89%     25.53% |       17146     17.59%     43.12% |       10991     11.28%     54.40% |       11008     11.29%     65.69% |       11274     11.57%     77.26% |       11077     11.36%     88.62% |       11093     11.38%    100.00% (Unspecified)
system.caches.L1Cache_Controller.S.Inv::total        97478                       (Unspecified)
system.caches.L1Cache_Controller.S.L1_Replacement |       77016     12.31%     12.31% |       79275     12.67%     24.99% |       81586     13.04%     38.03% |       75189     12.02%     50.05% |       78005     12.47%     62.53% |       80556     12.88%     75.41% |       75971     12.15%     87.55% |       77850     12.45%    100.00% (Unspecified)
system.caches.L1Cache_Controller.S.L1_Replacement::total       625448                       (Unspecified)
system.caches.L1Cache_Controller.E.Load  |     3889427     12.12%     12.12% |     3834936     11.95%     24.07% |     4073799     12.70%     36.77% |     4049916     12.62%     49.39% |     4073250     12.69%     62.08% |     4063372     12.66%     74.74% |     4062374     12.66%     87.40% |     4042481     12.60%    100.00% (Unspecified)
system.caches.L1Cache_Controller.E.Load::total     32089555                       (Unspecified)
system.caches.L1Cache_Controller.E.Store |       29875     12.05%     12.05% |       29773     12.01%     24.06% |       32468     13.10%     37.16% |       29609     11.94%     49.10% |       29821     12.03%     61.13% |       36885     14.88%     76.01% |       29802     12.02%     88.03% |       29672     11.97%    100.00% (Unspecified)
system.caches.L1Cache_Controller.E.Store::total       247905                       (Unspecified)
system.caches.L1Cache_Controller.E.Inv   |       10782     10.52%     10.52% |       17860     17.42%     27.93% |       11525     11.24%     39.17% |       11794     11.50%     50.68% |       11515     11.23%     61.91% |       10823     10.56%     72.46% |       14623     14.26%     86.72% |       13613     13.28%    100.00% (Unspecified)
system.caches.L1Cache_Controller.E.Inv::total       102535                       (Unspecified)
system.caches.L1Cache_Controller.E.L1_Replacement |      346682     12.46%     12.46% |      338431     12.16%     24.61% |      350586     12.60%     37.21% |      350630     12.60%     49.81% |      351151     12.62%     62.42% |      348681     12.53%     74.95% |      349008     12.54%     87.49% |      348157     12.51%    100.00% (Unspecified)
system.caches.L1Cache_Controller.E.L1_Replacement::total      2783326                       (Unspecified)
system.caches.L1Cache_Controller.E.Fwd_GETX |           6      8.82%      8.82% |           9     13.24%     22.06% |           5      7.35%     29.41% |          11     16.18%     45.59% |           7     10.29%     55.88% |          14     20.59%     76.47% |           8     11.76%     88.24% |           8     11.76%    100.00% (Unspecified)
system.caches.L1Cache_Controller.E.Fwd_GETX::total           68                       (Unspecified)
system.caches.L1Cache_Controller.E.Fwd_GETS |        4747     11.64%     11.64% |        4194     10.29%     21.93% |        5406     13.26%     35.19% |        5543     13.59%     48.78% |        5638     13.83%     62.61% |        4831     11.85%     74.46% |        5004     12.27%     86.73% |        5411     13.27%    100.00% (Unspecified)
system.caches.L1Cache_Controller.E.Fwd_GETS::total        40774                       (Unspecified)
system.caches.L1Cache_Controller.M.Load  |      714113     12.35%     12.35% |      739252     12.78%     25.13% |      733794     12.69%     37.82% |      690172     11.93%     49.75% |      774950     13.40%     63.15% |      743938     12.86%     76.02% |      694150     12.00%     88.02% |      692836     11.98%    100.00% (Unspecified)
system.caches.L1Cache_Controller.M.Load::total      5783205                       (Unspecified)
system.caches.L1Cache_Controller.M.Store |     1644102     12.25%     12.25% |     1634392     12.17%     24.42% |     1829107     13.62%     38.04% |     1635780     12.18%     50.23% |     1749195     13.03%     63.26% |     1654980     12.33%     75.58% |     1641531     12.23%     87.81% |     1636623     12.19%    100.00% (Unspecified)
system.caches.L1Cache_Controller.M.Store::total     13425710                       (Unspecified)
system.caches.L1Cache_Controller.M.Inv   |        3774     25.18%     25.18% |        2181     14.55%     39.73% |        1702     11.35%     51.08% |        1343      8.96%     60.04% |        1178      7.86%     67.90% |        1552     10.35%     78.25% |        1580     10.54%     88.79% |        1680     11.21%    100.00% (Unspecified)
system.caches.L1Cache_Controller.M.Inv::total        14990                       (Unspecified)
system.caches.L1Cache_Controller.M.L1_Replacement |       75146     13.98%     13.98% |       61559     11.46%     25.44% |       81317     15.13%     40.57% |       62101     11.56%     52.13% |       62406     11.61%     63.74% |       70949     13.20%     76.94% |       61989     11.54%     88.48% |       61929     11.52%    100.00% (Unspecified)
system.caches.L1Cache_Controller.M.L1_Replacement::total       537396                       (Unspecified)
system.caches.L1Cache_Controller.M.Fwd_GETX |         850     12.05%     12.05% |         844     11.96%     24.01% |        1072     15.20%     39.21% |         855     12.12%     51.33% |         866     12.28%     63.61% |         847     12.01%     75.62% |         856     12.13%     87.75% |         864     12.25%    100.00% (Unspecified)
system.caches.L1Cache_Controller.M.Fwd_GETX::total         7054                       (Unspecified)
system.caches.L1Cache_Controller.M.Fwd_GETS |        2467     10.38%     10.38% |        2164      9.11%     19.49% |        8643     36.38%     55.87% |        1973      8.30%     64.18% |        2170      9.13%     73.31% |        2357      9.92%     83.23% |        1990      8.38%     91.61% |        1994      8.39%    100.00% (Unspecified)
system.caches.L1Cache_Controller.M.Fwd_GETS::total        23758                       (Unspecified)
system.caches.L1Cache_Controller.IS.Inv  |           0      0.00%      0.00% |           0      0.00%      0.00% |           2     15.38%     15.38% |           3     23.08%     38.46% |           2     15.38%     53.85% |           2     15.38%     69.23% |           2     15.38%     84.62% |           2     15.38%    100.00% (Unspecified)
system.caches.L1Cache_Controller.IS.Inv::total           13                       (Unspecified)
system.caches.L1Cache_Controller.IS.L1_Replacement |           0      0.00%      0.00% |           0      0.00%      0.00% |           0      0.00%      0.00% |           0      0.00%      0.00% |           1    100.00%    100.00% |           0      0.00%    100.00% |           0      0.00%    100.00% |           0      0.00%    100.00% (Unspecified)
system.caches.L1Cache_Controller.IS.L1_Replacement::total            1                       (Unspecified)
system.caches.L1Cache_Controller.IS.Data_Exclusive |      399035     12.47%     12.47% |      393326     12.29%     24.76% |      403911     12.62%     37.39% |      399492     12.48%     49.87% |      400969     12.53%     62.40% |      403488     12.61%     75.01% |      400391     12.51%     87.52% |      399221     12.48%    100.00% (Unspecified)
system.caches.L1Cache_Controller.IS.Data_Exclusive::total      3199833                       (Unspecified)
system.caches.L1Cache_Controller.IS.DataS_fromL1 |        7457     11.56%     11.56% |       11502     17.82%     29.38% |        6529     10.12%     39.50% |        6431      9.97%     49.46% |        6623     10.26%     59.73% |       12074     18.71%     78.44% |        6718     10.41%     88.85% |        7198     11.15%    100.00% (Unspecified)
system.caches.L1Cache_Controller.IS.DataS_fromL1::total        64532                       (Unspecified)
system.caches.L1Cache_Controller.IS.Data_all_Acks |       82349     12.49%     12.49% |       83150     12.61%     25.10% |       86099     13.06%     38.15% |       80105     12.15%     50.30% |       82591     12.52%     62.82% |       81573     12.37%     75.19% |       81248     12.32%     87.51% |       82361     12.49%    100.00% (Unspecified)
system.caches.L1Cache_Controller.IS.Data_all_Acks::total       659476                       (Unspecified)
system.caches.L1Cache_Controller.IM.Data |         414     14.66%     14.66% |         550     19.48%     34.14% |         100      3.54%     37.68% |         312     11.05%     48.73% |         318     11.26%     59.99% |         399     14.13%     74.11% |         323     11.44%     85.55% |         408     14.45%    100.00% (Unspecified)
system.caches.L1Cache_Controller.IM.Data::total         2824                       (Unspecified)
system.caches.L1Cache_Controller.IM.Data_all_Acks |       35849     11.58%     11.58% |       35387     11.43%     23.00% |       59415     19.19%     42.19% |       35621     11.50%     53.69% |       35629     11.51%     65.20% |       36646     11.83%     77.03% |       35598     11.50%     88.53% |       35529     11.47%    100.00% (Unspecified)
system.caches.L1Cache_Controller.IM.Data_all_Acks::total       309674                       (Unspecified)
system.caches.L1Cache_Controller.SM.Inv  |           0      0.00%      0.00% |           1     33.33%     33.33% |           0      0.00%     33.33% |           0      0.00%     33.33% |           1     33.33%     66.67% |           0      0.00%     66.67% |           1     33.33%    100.00% |           0      0.00%    100.00% (Unspecified)
system.caches.L1Cache_Controller.SM.Inv::total            3                       (Unspecified)
system.caches.L1Cache_Controller.SM.Ack  |        2534     17.31%     17.31% |        1852     12.65%     29.96% |        1649     11.27%     41.23% |        1484     10.14%     51.37% |        1556     10.63%     62.00% |        2598     17.75%     79.74% |        1452      9.92%     89.66% |        1513     10.34%    100.00% (Unspecified)
system.caches.L1Cache_Controller.SM.Ack::total        14638                       (Unspecified)
system.caches.L1Cache_Controller.SM.Ack_all |        2169     13.72%     13.72% |        2240     14.17%     27.90% |        1465      9.27%     37.17% |        1727     10.93%     48.09% |        1776     11.24%     59.33% |        2875     18.19%     77.52% |        1716     10.86%     88.38% |        1837     11.62%    100.00% (Unspecified)
system.caches.L1Cache_Controller.SM.Ack_all::total        15805                       (Unspecified)
system.caches.L1Cache_Controller.IS_I.Data_all_Acks |           0      0.00%      0.00% |           0      0.00%      0.00% |           2     15.38%     15.38% |           3     23.08%     38.46% |           2     15.38%     53.85% |           2     15.38%     69.23% |           2     15.38%     84.62% |           2     15.38%    100.00% (Unspecified)
system.caches.L1Cache_Controller.IS_I.Data_all_Acks::total           13                       (Unspecified)
system.caches.L1Cache_Controller.M_I.Ifetch |           0      0.00%      0.00% |           0      0.00%      0.00% |           2    100.00%    100.00% |           0      0.00%    100.00% |           0      0.00%    100.00% |           0      0.00%    100.00% |           0      0.00%    100.00% |           0      0.00%    100.00% (Unspecified)
system.caches.L1Cache_Controller.M_I.Ifetch::total            2                       (Unspecified)
system.caches.L1Cache_Controller.M_I.Inv |           0      0.00%      0.00% |           1     50.00%     50.00% |           0      0.00%     50.00% |           0      0.00%     50.00% |           0      0.00%     50.00% |           1     50.00%    100.00% |           0      0.00%    100.00% |           0      0.00%    100.00% (Unspecified)
system.caches.L1Cache_Controller.M_I.Inv::total            2                       (Unspecified)
system.caches.L1Cache_Controller.M_I.WB_Ack |      421828     12.70%     12.70% |      399989     12.05%     24.75% |      431903     13.01%     37.75% |      412731     12.43%     50.18% |      413556     12.45%     62.64% |      419629     12.64%     75.27% |      410997     12.38%     87.65% |      410086     12.35%    100.00% (Unspecified)
system.caches.L1Cache_Controller.M_I.WB_Ack::total      3320719                       (Unspecified)
system.caches.L1Cache_Controller.SINK_WB_ACK.WB_Ack |           0      0.00%      0.00% |           1     50.00%     50.00% |           0      0.00%     50.00% |           0      0.00%     50.00% |           0      0.00%     50.00% |           1     50.00%    100.00% |           0      0.00%    100.00% |           0      0.00%    100.00% (Unspecified)
system.caches.L1Cache_Controller.SINK_WB_ACK.WB_Ack::total            2                       (Unspecified)
system.caches.Directory_Controller.Fetch |        5070      0.15%      0.15% |     3390130     99.85%    100.00% (Unspecified)
system.caches.Directory_Controller.Fetch::total      3395200                       (Unspecified)
system.caches.Directory_Controller.Data  |         117      0.02%      0.02% |      584741     99.98%    100.00% (Unspecified)
system.caches.Directory_Controller.Data::total       584858                       (Unspecified)
system.caches.Directory_Controller.Memory_Data |        5070      0.15%      0.15% |     3390111     99.85%    100.00% (Unspecified)
system.caches.Directory_Controller.Memory_Data::total      3395181                       (Unspecified)
system.caches.Directory_Controller.Memory_Ack |         117      0.02%      0.02% |      584741     99.98%    100.00% (Unspecified)
system.caches.Directory_Controller.Memory_Ack::total       584858                       (Unspecified)
system.caches.Directory_Controller.CleanReplacement |        4982      0.19%      0.19% |     2674287     99.81%    100.00% (Unspecified)
system.caches.Directory_Controller.CleanReplacement::total      2679269                       (Unspecified)
system.caches.Directory_Controller.I.Fetch |        5070      0.15%      0.15% |     3390130     99.85%    100.00% (Unspecified)
system.caches.Directory_Controller.I.Fetch::total      3395200                       (Unspecified)
system.caches.Directory_Controller.M.Data |         117      0.02%      0.02% |      584741     99.98%    100.00% (Unspecified)
system.caches.Directory_Controller.M.Data::total       584858                       (Unspecified)
system.caches.Directory_Controller.M.CleanReplacement |        4982      0.19%      0.19% |     2674287     99.81%    100.00% (Unspecified)
system.caches.Directory_Controller.M.CleanReplacement::total      2679269                       (Unspecified)
system.caches.Directory_Controller.IM.Memory_Data |        5070      0.15%      0.15% |     3390111     99.85%    100.00% (Unspecified)
system.caches.Directory_Controller.IM.Memory_Data::total      3395181                       (Unspecified)
system.caches.Directory_Controller.MI.Memory_Ack |         117      0.02%      0.02% |      584741     99.98%    100.00% (Unspecified)
system.caches.Directory_Controller.MI.Memory_Ack::total       584858                       (Unspecified)
system.caches.L2Cache_Controller.L1_GET_INSTR |        4167     12.66%     12.66% |        4846     14.72%     27.38% |        3718     11.30%     38.68% |        3333     10.13%     48.80% |        4244     12.89%     61.70% |        4032     12.25%     73.95% |        4108     12.48%     86.43% |        4468     13.57%    100.00% (Unspecified)
system.caches.L2Cache_Controller.L1_GET_INSTR::total        32916                       (Unspecified)
system.caches.L2Cache_Controller.L1_GETS |      492546     12.66%     12.66% |      484421     12.45%     25.10% |      486572     12.50%     37.61% |      483499     12.42%     50.03% |      484580     12.45%     62.48% |      485428     12.47%     74.96% |      484704     12.45%     87.41% |      489898     12.59%    100.00% (Unspecified)
system.caches.L2Cache_Controller.L1_GETS::total      3891648                       (Unspecified)
system.caches.L2Cache_Controller.L1_GETX |       38495     12.31%     12.31% |       43889     14.03%     26.34% |       37774     12.08%     38.41% |       38351     12.26%     50.67% |       38139     12.19%     62.87% |       39042     12.48%     75.35% |       38354     12.26%     87.61% |       38762     12.39%    100.00% (Unspecified)
system.caches.L2Cache_Controller.L1_GETX::total       312806                       (Unspecified)
system.caches.L2Cache_Controller.L1_UPGRADE |        1116      8.59%      8.59% |        1116      8.59%     17.18% |        1121      8.63%     25.80% |        1122      8.63%     34.44% |        1237      9.52%     43.96% |        1193      9.18%     53.14% |        1284      9.88%     63.02% |        4806     36.98%    100.00% (Unspecified)
system.caches.L2Cache_Controller.L1_UPGRADE::total        12995                       (Unspecified)
system.caches.L2Cache_Controller.L1_PUTX |      411583     12.39%     12.39% |      415844     12.52%     24.92% |      415535     12.51%     37.43% |      415945     12.53%     49.96% |      415926     12.53%     62.48% |      416298     12.54%     75.02% |      415540     12.51%     87.53% |      414049     12.47%    100.00% (Unspecified)
system.caches.L2Cache_Controller.L1_PUTX::total      3320720                       (Unspecified)
system.caches.L2Cache_Controller.L1_PUTX_old |           0      0.00%      0.00% |           0      0.00%      0.00% |           2     50.00%     50.00% |           0      0.00%     50.00% |           2     50.00%    100.00% |           0      0.00%    100.00% |           0      0.00%    100.00% |           0      0.00%    100.00% (Unspecified)
system.caches.L2Cache_Controller.L1_PUTX_old::total            4                       (Unspecified)
system.caches.L2Cache_Controller.L2_Replacement |       71291     12.48%     12.48% |       71336     12.49%     24.97% |       71391     12.50%     37.47% |       71372     12.50%     49.97% |       71374     12.50%     62.47% |       71674     12.55%     75.02% |       71379     12.50%     87.51% |       71315     12.49%    100.00% (Unspecified)
system.caches.L2Cache_Controller.L2_Replacement::total       571132                       (Unspecified)
system.caches.L2Cache_Controller.L2_Replacement_clean |      337063     12.52%     12.52% |      336576     12.50%     25.01% |      336685     12.50%     37.52% |      336716     12.50%     50.02% |      336736     12.50%     62.52% |      336509     12.50%     75.02% |      336417     12.49%     87.51% |      336295     12.49%    100.00% (Unspecified)
system.caches.L2Cache_Controller.L2_Replacement_clean::total      2692997                       (Unspecified)
system.caches.L2Cache_Controller.Mem_Data |      424735     12.51%     12.51% |      424293     12.50%     25.01% |      424458     12.50%     37.51% |      424469     12.50%     50.01% |      424494     12.50%     62.51% |      424563     12.50%     75.02% |      424178     12.49%     87.51% |      423991     12.49%    100.00% (Unspecified)
system.caches.L2Cache_Controller.Mem_Data::total      3395181                       (Unspecified)
system.caches.L2Cache_Controller.Mem_Ack |      408354     12.51%     12.51% |      407910     12.50%     25.01% |      408076     12.50%     37.51% |      408088     12.50%     50.01% |      408110     12.50%     62.51% |      408183     12.51%     75.02% |      407796     12.49%     87.51% |      407610     12.49%    100.00% (Unspecified)
system.caches.L2Cache_Controller.Mem_Ack::total      3264127                       (Unspecified)
system.caches.L2Cache_Controller.WB_Data |        4525     11.68%     11.68% |        4440     11.46%     23.14% |        4270     11.02%     34.16% |        4374     11.29%     45.44% |        4479     11.56%     57.00% |        4598     11.87%     68.87% |        4533     11.70%     80.57% |        7529     19.43%    100.00% (Unspecified)
system.caches.L2Cache_Controller.WB_Data::total        38748                       (Unspecified)
system.caches.L2Cache_Controller.WB_Data_clean |        9308     22.83%     22.83% |        4086     10.02%     32.85% |        4292     10.53%     43.37% |        4153     10.18%     53.56% |        4262     10.45%     64.01% |        4213     10.33%     74.34% |        4285     10.51%     84.85% |        6177     15.15%    100.00% (Unspecified)
system.caches.L2Cache_Controller.WB_Data_clean::total        40776                       (Unspecified)
system.caches.L2Cache_Controller.Ack     |       18127     15.82%     15.82% |       13295     11.60%     27.42% |       13444     11.73%     39.16% |       12577     10.98%     50.13% |       13679     11.94%     62.07% |       14067     12.28%     74.35% |       13677     11.94%     86.29% |       15714     13.71%    100.00% (Unspecified)
system.caches.L2Cache_Controller.Ack::total       114580                       (Unspecified)
system.caches.L2Cache_Controller.Ack_all |       22364     14.90%     14.90% |       18282     12.18%     27.09% |       18041     12.02%     39.11% |       17949     11.96%     51.07% |       18236     12.15%     63.22% |       18011     12.00%     75.23% |       18112     12.07%     87.30% |       19063     12.70%    100.00% (Unspecified)
system.caches.L2Cache_Controller.Ack_all::total       150058                       (Unspecified)
system.caches.L2Cache_Controller.Unblock |       11854     18.37%     18.37% |        6622     10.26%     28.63% |        6807     10.55%     39.18% |        6677     10.35%     49.53% |        6934     10.75%     60.27% |        6859     10.63%     70.90% |        6975     10.81%     81.71% |       11804     18.29%    100.00% (Unspecified)
system.caches.L2Cache_Controller.Unblock::total        64532                       (Unspecified)
system.caches.L2Cache_Controller.Exclusive_Unblock |      439810     12.48%     12.48% |      445070     12.62%     25.10% |      438886     12.45%     37.55% |      439632     12.47%     50.02% |      439586     12.47%     62.49% |      440328     12.49%     74.98% |      439347     12.46%     87.44% |      442653     12.56%    100.00% (Unspecified)
system.caches.L2Cache_Controller.Exclusive_Unblock::total      3525312                       (Unspecified)
system.caches.L2Cache_Controller.NP.L1_GET_INSTR |         821     12.84%     12.84% |         816     12.76%     25.60% |         798     12.48%     38.08% |         750     11.73%     49.80% |         820     12.82%     62.63% |         805     12.59%     75.22% |         783     12.24%     87.46% |         802     12.54%    100.00% (Unspecified)
system.caches.L2Cache_Controller.NP.L1_GET_INSTR::total         6395                       (Unspecified)
system.caches.L2Cache_Controller.NP.L1_GETS |      391041     12.51%     12.51% |      390744     12.50%     25.01% |      390998     12.51%     37.51% |      390976     12.51%     50.02% |      390916     12.50%     62.52% |      390914     12.50%     75.02% |      390613     12.49%     87.52% |      390279     12.48%    100.00% (Unspecified)
system.caches.L2Cache_Controller.NP.L1_GETS::total      3126481                       (Unspecified)
system.caches.L2Cache_Controller.NP.L1_GETX |       32876     12.53%     12.53% |       32736     12.48%     25.01% |       32664     12.45%     37.46% |       32746     12.48%     49.95% |       32758     12.49%     62.43% |       32848     12.52%     74.96% |       32784     12.50%     87.45% |       32913     12.55%    100.00% (Unspecified)
system.caches.L2Cache_Controller.NP.L1_GETX::total       262325                       (Unspecified)
system.caches.L2Cache_Controller.NP.L1_PUTX_old |           0      0.00%      0.00% |           0      0.00%      0.00% |           1     50.00%     50.00% |           0      0.00%     50.00% |           1     50.00%    100.00% |           0      0.00%    100.00% |           0      0.00%    100.00% |           0      0.00%    100.00% (Unspecified)
system.caches.L2Cache_Controller.NP.L1_PUTX_old::total            2                       (Unspecified)
system.caches.L2Cache_Controller.SS.L1_GET_INSTR |        2965     12.76%     12.76% |        3621     15.58%     28.35% |        2588     11.14%     39.48% |        2230      9.60%     49.08% |        2919     12.56%     61.64% |        2785     11.99%     73.63% |        2897     12.47%     86.10% |        3230     13.90%    100.00% (Unspecified)
system.caches.L2Cache_Controller.SS.L1_GET_INSTR::total        23235                       (Unspecified)
system.caches.L2Cache_Controller.SS.L1_GETS |       80096     12.81%     12.81% |       77477     12.39%     25.19% |       79498     12.71%     37.90% |       76485     12.23%     50.13% |       77184     12.34%     62.47% |       78186     12.50%     74.97% |       77696     12.42%     87.40% |       78829     12.60%    100.00% (Unspecified)
system.caches.L2Cache_Controller.SS.L1_GETS::total       625451                       (Unspecified)
system.caches.L2Cache_Controller.SS.L1_GETX |         378     13.38%     13.38% |         328     11.61%     24.98% |         347     12.28%     37.26% |         333     11.78%     49.04% |         369     13.06%     62.10% |         328     11.61%     73.71% |         384     13.59%     87.30% |         359     12.70%    100.00% (Unspecified)
system.caches.L2Cache_Controller.SS.L1_GETX::total         2826                       (Unspecified)
system.caches.L2Cache_Controller.SS.L1_UPGRADE |        1116      8.60%      8.60% |        1116      8.60%     17.19% |        1121      8.64%     25.83% |        1122      8.64%     34.47% |        1235      9.51%     43.99% |        1191      9.17%     53.16% |        1275      9.82%     62.98% |        4805     37.02%    100.00% (Unspecified)
system.caches.L2Cache_Controller.SS.L1_UPGRADE::total        12981                       (Unspecified)
system.caches.L2Cache_Controller.SS.L2_Replacement |         846     11.94%     11.94% |         879     12.41%     24.35% |         881     12.44%     36.79% |         868     12.25%     49.05% |         938     13.24%     62.29% |         899     12.69%     74.98% |         879     12.41%     87.39% |         893     12.61%    100.00% (Unspecified)
system.caches.L2Cache_Controller.SS.L2_Replacement::total         7083                       (Unspecified)
system.caches.L2Cache_Controller.SS.L2_Replacement_clean |        9077     22.45%     22.45% |        4199     10.38%     32.83% |        4320     10.68%     43.51% |        4152     10.27%     53.78% |        4278     10.58%     64.36% |        4311     10.66%     75.02% |        4263     10.54%     85.56% |        5840     14.44%    100.00% (Unspecified)
system.caches.L2Cache_Controller.SS.L2_Replacement_clean::total        40440                       (Unspecified)
system.caches.L2Cache_Controller.M.L1_GET_INSTR |           0      0.00%      0.00% |           2     20.00%     20.00% |           1     10.00%     30.00% |           1     10.00%     40.00% |           0      0.00%     40.00% |           1     10.00%     50.00% |           2     20.00%     70.00% |           3     30.00%    100.00% (Unspecified)
system.caches.L2Cache_Controller.M.L1_GET_INSTR::total           10                       (Unspecified)
system.caches.L2Cache_Controller.M.L1_GETS |        9239     12.53%     12.53% |        9493     12.88%     25.41% |        9052     12.28%     37.68% |        9228     12.52%     50.20% |        9328     12.65%     62.85% |        9277     12.58%     75.43% |        9232     12.52%     87.95% |        8881     12.05%    100.00% (Unspecified)
system.caches.L2Cache_Controller.M.L1_GETS::total        73730                       (Unspecified)
system.caches.L2Cache_Controller.M.L1_GETX |        5156     12.82%     12.82% |        5072     12.61%     25.43% |        4729     11.76%     37.18% |        4909     12.20%     49.39% |        4965     12.34%     61.73% |        5298     13.17%     74.90% |        5026     12.49%     87.40% |        5070     12.60%    100.00% (Unspecified)
system.caches.L2Cache_Controller.M.L1_GETX::total        40225                       (Unspecified)
system.caches.L2Cache_Controller.M.L2_Replacement |       70157     12.49%     12.49% |       70194     12.49%     24.98% |       70303     12.51%     37.49% |       70244     12.50%     50.00% |       70166     12.49%     62.49% |       70449     12.54%     75.03% |       70224     12.50%     87.53% |       70086     12.47%    100.00% (Unspecified)
system.caches.L2Cache_Controller.M.L2_Replacement::total       561823                       (Unspecified)
system.caches.L2Cache_Controller.M.L2_Replacement_clean |      313854     12.37%     12.37% |      317532     12.51%     24.88% |      317977     12.53%     37.42% |      318045     12.53%     49.95% |      317901     12.53%     62.48% |      317771     12.52%     75.01% |      317617     12.52%     87.52% |      316559     12.48%    100.00% (Unspecified)
system.caches.L2Cache_Controller.M.L2_Replacement_clean::total      2537256                       (Unspecified)
system.caches.L2Cache_Controller.MT.L1_GETS |       11854     18.37%     18.37% |        6622     10.26%     28.63% |        6807     10.55%     39.18% |        6677     10.35%     49.53% |        6934     10.75%     60.27% |        6859     10.63%     70.90% |        6975     10.81%     81.71% |       11804     18.29%    100.00% (Unspecified)
system.caches.L2Cache_Controller.MT.L1_GETS::total        64532                       (Unspecified)
system.caches.L2Cache_Controller.MT.L1_GETX |          72      1.01%      1.01% |        5625     78.98%     79.99% |          33      0.46%     80.45% |         363      5.10%     85.55% |          47      0.66%     86.21% |         521      7.32%     93.53% |          79      1.11%     94.64% |         382      5.36%    100.00% (Unspecified)
system.caches.L2Cache_Controller.MT.L1_GETX::total         7122                       (Unspecified)
system.caches.L2Cache_Controller.MT.L1_PUTX |      411583     12.39%     12.39% |      415844     12.52%     24.92% |      415535     12.51%     37.43% |      415945     12.53%     49.96% |      415926     12.53%     62.48% |      416298     12.54%     75.02% |      415540     12.51%     87.53% |      414049     12.47%    100.00% (Unspecified)
system.caches.L2Cache_Controller.MT.L1_PUTX::total      3320720                       (Unspecified)
system.caches.L2Cache_Controller.MT.L2_Replacement |         288     12.94%     12.94% |         263     11.81%     24.75% |         207      9.30%     34.05% |         260     11.68%     45.73% |         270     12.13%     57.86% |         326     14.65%     72.51% |         276     12.40%     84.91% |         336     15.09%    100.00% (Unspecified)
system.caches.L2Cache_Controller.MT.L2_Replacement::total         2226                       (Unspecified)
system.caches.L2Cache_Controller.MT.L2_Replacement_clean |       14132     12.26%     12.26% |       14845     12.87%     25.13% |       14388     12.48%     37.61% |       14519     12.59%     50.20% |       14557     12.63%     62.83% |       14427     12.51%     75.34% |       14537     12.61%     87.95% |       13896     12.05%    100.00% (Unspecified)
system.caches.L2Cache_Controller.MT.L2_Replacement_clean::total       115301                       (Unspecified)
system.caches.L2Cache_Controller.M_I.L1_GET_INSTR |           6      9.38%      9.38% |           0      0.00%      9.38% |           0      0.00%      9.38% |           8     12.50%     21.88% |           8     12.50%     34.38% |           0      0.00%     34.38% |          20     31.25%     65.62% |          22     34.38%    100.00% (Unspecified)
system.caches.L2Cache_Controller.M_I.L1_GET_INSTR::total           64                       (Unspecified)
system.caches.L2Cache_Controller.M_I.L1_GETS |          12     15.38%     15.38% |           3      3.85%     19.23% |          17     21.79%     41.03% |          14     17.95%     58.97% |           2      2.56%     61.54% |          25     32.05%     93.59% |           3      3.85%     97.44% |           2      2.56%    100.00% (Unspecified)
system.caches.L2Cache_Controller.M_I.L1_GETS::total           78                       (Unspecified)
system.caches.L2Cache_Controller.M_I.L1_GETX |          12     92.31%     92.31% |           1      7.69%    100.00% |           0      0.00%    100.00% |           0      0.00%    100.00% |           0      0.00%    100.00% |           0      0.00%    100.00% |           0      0.00%    100.00% |           0      0.00%    100.00% (Unspecified)
system.caches.L2Cache_Controller.M_I.L1_GETX::total           13                       (Unspecified)
system.caches.L2Cache_Controller.M_I.Mem_Ack |      408354     12.51%     12.51% |      407910     12.50%     25.01% |      408076     12.50%     37.51% |      408088     12.50%     50.01% |      408110     12.50%     62.51% |      408183     12.51%     75.02% |      407796     12.49%     87.51% |      407610     12.49%    100.00% (Unspecified)
system.caches.L2Cache_Controller.M_I.Mem_Ack::total      3264127                       (Unspecified)
system.caches.L2Cache_Controller.MT_I.WB_Data |         173     13.69%     13.69% |         135     10.68%     24.37% |          99      7.83%     32.20% |         152     12.03%     44.22% |         135     10.68%     54.91% |         207     16.38%     71.28% |         156     12.34%     83.62% |         207     16.38%    100.00% (Unspecified)
system.caches.L2Cache_Controller.MT_I.WB_Data::total         1264                       (Unspecified)
system.caches.L2Cache_Controller.MT_I.Ack_all |         115     11.95%     11.95% |         128     13.31%     25.26% |         108     11.23%     36.49% |         108     11.23%     47.71% |         135     14.03%     61.75% |         119     12.37%     74.12% |         120     12.47%     86.59% |         129     13.41%    100.00% (Unspecified)
system.caches.L2Cache_Controller.MT_I.Ack_all::total          962                       (Unspecified)
system.caches.L2Cache_Controller.MCT_I.L1_PUTX_old |           0      0.00%      0.00% |           0      0.00%      0.00% |           1     50.00%     50.00% |           0      0.00%     50.00% |           1     50.00%    100.00% |           0      0.00%    100.00% |           0      0.00%    100.00% |           0      0.00%    100.00% (Unspecified)
system.caches.L2Cache_Controller.MCT_I.L1_PUTX_old::total            2                       (Unspecified)
system.caches.L2Cache_Controller.MCT_I.WB_Data |        1806     13.16%     13.16% |        1769     12.89%     26.05% |        1655     12.06%     38.10% |        1698     12.37%     50.47% |        1671     12.17%     62.65% |        1745     12.71%     75.36% |        1687     12.29%     87.65% |        1695     12.35%    100.00% (Unspecified)
system.caches.L2Cache_Controller.MCT_I.WB_Data::total        13726                       (Unspecified)
system.caches.L2Cache_Controller.MCT_I.WB_Data_clean |           0      0.00%      0.00% |           0      0.00%      0.00% |           1     50.00%     50.00% |           0      0.00%     50.00% |           1     50.00%    100.00% |           0      0.00%    100.00% |           0      0.00%    100.00% |           0      0.00%    100.00% (Unspecified)
system.caches.L2Cache_Controller.MCT_I.WB_Data_clean::total            2                       (Unspecified)
system.caches.L2Cache_Controller.MCT_I.Ack_all |       12326     12.14%     12.14% |       13076     12.87%     25.01% |       12732     12.53%     37.54% |       12821     12.62%     50.17% |       12885     12.69%     62.85% |       12682     12.49%     75.34% |       12850     12.65%     87.99% |       12201     12.01%    100.00% (Unspecified)
system.caches.L2Cache_Controller.MCT_I.Ack_all::total       101573                       (Unspecified)
system.caches.L2Cache_Controller.I_I.Ack |       15827     16.69%     16.69% |       10878     11.47%     28.16% |       10972     11.57%     39.73% |       10171     10.72%     50.45% |       11094     11.70%     62.15% |       11521     12.15%     74.30% |       11206     11.82%     86.11% |       13170     13.89%    100.00% (Unspecified)
system.caches.L2Cache_Controller.I_I.Ack::total        94839                       (Unspecified)
system.caches.L2Cache_Controller.I_I.Ack_all |        9077     22.45%     22.45% |        4199     10.38%     32.83% |        4320     10.68%     43.51% |        4152     10.27%     53.78% |        4278     10.58%     64.36% |        4311     10.66%     75.02% |        4263     10.54%     85.56% |        5840     14.44%    100.00% (Unspecified)
system.caches.L2Cache_Controller.I_I.Ack_all::total        40440                       (Unspecified)
system.caches.L2Cache_Controller.S_I.Ack |        2300     11.65%     11.65% |        2417     12.24%     23.89% |        2472     12.52%     36.42% |        2406     12.19%     48.60% |        2585     13.09%     61.70% |        2546     12.90%     74.60% |        2471     12.52%     87.11% |        2544     12.89%    100.00% (Unspecified)
system.caches.L2Cache_Controller.S_I.Ack::total        19741                       (Unspecified)
system.caches.L2Cache_Controller.S_I.Ack_all |         846     11.94%     11.94% |         879     12.41%     24.35% |         881     12.44%     36.79% |         868     12.25%     49.05% |         938     13.24%     62.29% |         899     12.69%     74.98% |         879     12.41%     87.39% |         893     12.61%    100.00% (Unspecified)
system.caches.L2Cache_Controller.S_I.Ack_all::total         7083                       (Unspecified)
system.caches.L2Cache_Controller.ISS.L1_GETS |          65     18.16%     18.16% |          41     11.45%     29.61% |          56     15.64%     45.25% |          42     11.73%     56.98% |          32      8.94%     65.92% |          45     12.57%     78.49% |          44     12.29%     90.78% |          33      9.22%    100.00% (Unspecified)
system.caches.L2Cache_Controller.ISS.L1_GETS::total          358                       (Unspecified)
system.caches.L2Cache_Controller.ISS.Mem_Data |      390973     12.51%     12.51% |      390700     12.50%     25.00% |      390940     12.51%     37.51% |      390931     12.51%     50.02% |      390884     12.50%     62.52% |      390865     12.50%     75.02% |      390567     12.49%     87.52% |      390243     12.48%    100.00% (Unspecified)
system.caches.L2Cache_Controller.ISS.Mem_Data::total      3126103                       (Unspecified)
system.caches.L2Cache_Controller.IS.L1_GET_INSTR |         375     11.67%     11.67% |         407     12.67%     24.35% |         331     10.31%     34.65% |         344     10.71%     45.36% |         497     15.47%     60.83% |         441     13.73%     74.56% |         406     12.64%     87.20% |         411     12.80%    100.00% (Unspecified)
system.caches.L2Cache_Controller.IS.L1_GET_INSTR::total         3212                       (Unspecified)
system.caches.L2Cache_Controller.IS.L1_GETS |         121     25.69%     25.69% |          34      7.22%     32.91% |          99     21.02%     53.93% |          57     12.10%     66.03% |          13      2.76%     68.79% |          90     19.11%     87.90% |          29      6.16%     94.06% |          28      5.94%    100.00% (Unspecified)
system.caches.L2Cache_Controller.IS.L1_GETS::total          471                       (Unspecified)
system.caches.L2Cache_Controller.IS.Mem_Data |         886     13.12%     13.12% |         857     12.69%     25.81% |         854     12.65%     38.46% |         792     11.73%     50.19% |         852     12.62%     62.80% |         850     12.59%     75.39% |         827     12.25%     87.64% |         835     12.36%    100.00% (Unspecified)
system.caches.L2Cache_Controller.IS.Mem_Data::total         6753                       (Unspecified)
system.caches.L2Cache_Controller.IM.L1_GETX |           1      9.09%      9.09% |           7     63.64%     72.73% |           0      0.00%     72.73% |           0      0.00%     72.73% |           0      0.00%     72.73% |           2     18.18%     90.91% |           0      0.00%     90.91% |           1      9.09%    100.00% (Unspecified)
system.caches.L2Cache_Controller.IM.L1_GETX::total           11                       (Unspecified)
system.caches.L2Cache_Controller.IM.Mem_Data |       32876     12.53%     12.53% |       32736     12.48%     25.01% |       32664     12.45%     37.46% |       32746     12.48%     49.95% |       32758     12.49%     62.43% |       32848     12.52%     74.96% |       32784     12.50%     87.45% |       32913     12.55%    100.00% (Unspecified)
system.caches.L2Cache_Controller.IM.Mem_Data::total       262325                       (Unspecified)
system.caches.L2Cache_Controller.SS_MB.L1_GETS |          55     25.35%     25.35% |           0      0.00%     25.35% |           0      0.00%     25.35% |           1      0.46%     25.81% |          86     39.63%     65.44% |           6      2.76%     68.20% |          55     25.35%     93.55% |          14      6.45%    100.00% (Unspecified)
system.caches.L2Cache_Controller.SS_MB.L1_GETS::total          217                       (Unspecified)
system.caches.L2Cache_Controller.SS_MB.L1_GETX |           0      0.00%      0.00% |           0      0.00%      0.00% |           1      3.57%      3.57% |           0      0.00%      3.57% |           0      0.00%      3.57% |           2      7.14%     10.71% |          24     85.71%     96.43% |           1      3.57%    100.00% (Unspecified)
system.caches.L2Cache_Controller.SS_MB.L1_GETX::total           28                       (Unspecified)
system.caches.L2Cache_Controller.SS_MB.L1_UPGRADE |           0      0.00%      0.00% |           0      0.00%      0.00% |           0      0.00%      0.00% |           0      0.00%      0.00% |           1     33.33%     33.33% |           1     33.33%     66.67% |           0      0.00%     66.67% |           1     33.33%    100.00% (Unspecified)
system.caches.L2Cache_Controller.SS_MB.L1_UPGRADE::total            3                       (Unspecified)
system.caches.L2Cache_Controller.SS_MB.Exclusive_Unblock |        1494      9.45%      9.45% |        1444      9.14%     18.59% |        1468      9.29%     27.87% |        1455      9.20%     37.08% |        1604     10.15%     47.23% |        1519      9.61%     56.84% |        1659     10.50%     67.33% |        5164     32.67%    100.00% (Unspecified)
system.caches.L2Cache_Controller.SS_MB.Exclusive_Unblock::total        15807                       (Unspecified)
system.caches.L2Cache_Controller.MT_MB.L1_GETS |           1     20.00%     20.00% |           0      0.00%     20.00% |           0      0.00%     20.00% |           0      0.00%     20.00% |           1     20.00%     40.00% |           2     40.00%     80.00% |           1     20.00%    100.00% |           0      0.00%    100.00% (Unspecified)
system.caches.L2Cache_Controller.MT_MB.L1_GETS::total            5                       (Unspecified)
system.caches.L2Cache_Controller.MT_MB.L1_GETX |           0      0.00%      0.00% |         120     47.06%     47.06% |           0      0.00%     47.06% |           0      0.00%     47.06% |           0      0.00%     47.06% |          42     16.47%     63.53% |          57     22.35%     85.88% |          36     14.12%    100.00% (Unspecified)
system.caches.L2Cache_Controller.MT_MB.L1_GETX::total          255                       (Unspecified)
system.caches.L2Cache_Controller.MT_MB.Exclusive_Unblock |      438316     12.49%     12.49% |      443626     12.64%     25.13% |      437418     12.46%     37.59% |      438177     12.49%     50.08% |      437982     12.48%     62.56% |      438809     12.50%     75.06% |      437688     12.47%     87.53% |      437489     12.47%    100.00% (Unspecified)
system.caches.L2Cache_Controller.MT_MB.Exclusive_Unblock::total      3509505                       (Unspecified)
system.caches.L2Cache_Controller.MT_IIB.L1_GETS |          60     19.35%     19.35% |           7      2.26%     21.61% |          44     14.19%     35.81% |          17      5.48%     41.29% |          84     27.10%     68.39% |          22      7.10%     75.48% |          49     15.81%     91.29% |          27      8.71%    100.00% (Unspecified)
system.caches.L2Cache_Controller.MT_IIB.L1_GETS::total          310                       (Unspecified)
system.caches.L2Cache_Controller.MT_IIB.WB_Data |        2544     10.74%     10.74% |        2535     10.70%     21.43% |        2514     10.61%     32.04% |        2500     10.55%     42.59% |        2650     11.18%     53.77% |        2644     11.16%     64.93% |        2685     11.33%     76.26% |        5625     23.74%    100.00% (Unspecified)
system.caches.L2Cache_Controller.MT_IIB.WB_Data::total        23697                       (Unspecified)
system.caches.L2Cache_Controller.MT_IIB.WB_Data_clean |        9308     22.83%     22.83% |        4086     10.02%     32.85% |        4291     10.52%     43.38% |        4153     10.19%     53.56% |        4260     10.45%     64.01% |        4212     10.33%     74.34% |        4283     10.51%     84.85% |        6177     15.15%    100.00% (Unspecified)
system.caches.L2Cache_Controller.MT_IIB.WB_Data_clean::total        40770                       (Unspecified)
system.caches.L2Cache_Controller.MT_IIB.Unblock |           2      3.08%      3.08% |           1      1.54%      4.62% |           2      3.08%      7.69% |          24     36.92%     44.62% |          24     36.92%     81.54% |           3      4.62%     86.15% |           7     10.77%     96.92% |           2      3.08%    100.00% (Unspecified)
system.caches.L2Cache_Controller.MT_IIB.Unblock::total           65                       (Unspecified)
system.caches.L2Cache_Controller.MT_IB.WB_Data |           2      3.28%      3.28% |           1      1.64%      4.92% |           2      3.28%      8.20% |          24     39.34%     47.54% |          23     37.70%     85.25% |           2      3.28%     88.52% |           5      8.20%     96.72% |           2      3.28%    100.00% (Unspecified)
system.caches.L2Cache_Controller.MT_IB.WB_Data::total           61                       (Unspecified)
system.caches.L2Cache_Controller.MT_IB.WB_Data_clean |           0      0.00%      0.00% |           0      0.00%      0.00% |           0      0.00%      0.00% |           0      0.00%      0.00% |           1     25.00%     25.00% |           1     25.00%     50.00% |           2     50.00%    100.00% |           0      0.00%    100.00% (Unspecified)
system.caches.L2Cache_Controller.MT_IB.WB_Data_clean::total            4                       (Unspecified)
system.caches.L2Cache_Controller.MT_SB.L1_GETS |           2     13.33%     13.33% |           0      0.00%     13.33% |           1      6.67%     20.00% |           2     13.33%     33.33% |           0      0.00%     33.33% |           2     13.33%     46.67% |           7     46.67%     93.33% |           1      6.67%    100.00% (Unspecified)
system.caches.L2Cache_Controller.MT_SB.L1_GETS::total           15                       (Unspecified)
system.caches.L2Cache_Controller.MT_SB.L1_GETX |           0      0.00%      0.00% |           0      0.00%      0.00% |           0      0.00%      0.00% |           0      0.00%      0.00% |           0      0.00%      0.00% |           1    100.00%    100.00% |           0      0.00%    100.00% |           0      0.00%    100.00% (Unspecified)
system.caches.L2Cache_Controller.MT_SB.L1_GETX::total            1                       (Unspecified)
system.caches.L2Cache_Controller.MT_SB.L1_UPGRADE |           0      0.00%      0.00% |           0      0.00%      0.00% |           0      0.00%      0.00% |           0      0.00%      0.00% |           1      9.09%      9.09% |           1      9.09%     18.18% |           9     81.82%    100.00% |           0      0.00%    100.00% (Unspecified)
system.caches.L2Cache_Controller.MT_SB.L1_UPGRADE::total           11                       (Unspecified)
system.caches.L2Cache_Controller.MT_SB.Unblock |       11852     18.38%     18.38% |        6621     10.27%     28.65% |        6805     10.56%     39.21% |        6653     10.32%     49.53% |        6910     10.72%     60.25% |        6856     10.63%     70.88% |        6968     10.81%     81.69% |       11802     18.31%    100.00% (Unspecified)
system.caches.L2Cache_Controller.MT_SB.Unblock::total        64467                       (Unspecified)
system.caches.RequestType.LD.latency_hist_seqr::bucket_size          512                       (Unspecified)
system.caches.RequestType.LD.latency_hist_seqr::max_bucket         5119                       (Unspecified)
system.caches.RequestType.LD.latency_hist_seqr::samples    107532851                       (Unspecified)
system.caches.RequestType.LD.latency_hist_seqr::mean    15.633727                       (Unspecified)
system.caches.RequestType.LD.latency_hist_seqr::gmean     1.219515                       (Unspecified)
system.caches.RequestType.LD.latency_hist_seqr::stdev    96.478533                       (Unspecified)
system.caches.RequestType.LD.latency_hist_seqr |   106614845     99.15%     99.15% |      837701      0.78%     99.93% |       30059      0.03%     99.95% |       11110      0.01%     99.96% |       31943      0.03%     99.99% |        6535      0.01%    100.00% |         556      0.00%    100.00% |          78      0.00%    100.00% |          21      0.00%    100.00% |           3      0.00%    100.00% (Unspecified)
system.caches.RequestType.LD.latency_hist_seqr::total    107532851                       (Unspecified)
system.caches.RequestType.LD.hit_latency_hist_seqr::bucket_size            1                       (Unspecified)
system.caches.RequestType.LD.hit_latency_hist_seqr::max_bucket            9                       (Unspecified)
system.caches.RequestType.LD.hit_latency_hist_seqr::samples    103641849                       (Unspecified)
system.caches.RequestType.LD.hit_latency_hist_seqr::mean     1.001931                       (Unspecified)
system.caches.RequestType.LD.hit_latency_hist_seqr::gmean     1.001339                       (Unspecified)
system.caches.RequestType.LD.hit_latency_hist_seqr::stdev     0.043911                       (Unspecified)
system.caches.RequestType.LD.hit_latency_hist_seqr |           0      0.00%      0.00% |   103441744     99.81%     99.81% |      200065      0.19%    100.00% |          40      0.00%    100.00% |           0      0.00%    100.00% |           0      0.00%    100.00% |           0      0.00%    100.00% |           0      0.00%    100.00% |           0      0.00%    100.00% |           0      0.00%    100.00% (Unspecified)
system.caches.RequestType.LD.hit_latency_hist_seqr::total    103641849                       (Unspecified)
system.caches.RequestType.LD.miss_latency_hist_seqr::bucket_size          512                       (Unspecified)
system.caches.RequestType.LD.miss_latency_hist_seqr::max_bucket         5119                       (Unspecified)
system.caches.RequestType.LD.miss_latency_hist_seqr::samples      3891002                       (Unspecified)
system.caches.RequestType.LD.miss_latency_hist_seqr::mean   405.370456                       (Unspecified)
system.caches.RequestType.LD.miss_latency_hist_seqr::gmean   232.490371                       (Unspecified)
system.caches.RequestType.LD.miss_latency_hist_seqr::stdev   315.664757                       (Unspecified)
system.caches.RequestType.LD.miss_latency_hist_seqr |     2972996     76.41%     76.41% |      837701     21.53%     97.94% |       30059      0.77%     98.71% |       11110      0.29%     98.99% |       31943      0.82%     99.82% |        6535      0.17%     99.98% |         556      0.01%    100.00% |          78      0.00%    100.00% |          21      0.00%    100.00% |           3      0.00%    100.00% (Unspecified)
system.caches.RequestType.LD.miss_latency_hist_seqr::total      3891002                       (Unspecified)
system.caches.RequestType.ST.latency_hist_seqr::bucket_size          512                       (Unspecified)
system.caches.RequestType.ST.latency_hist_seqr::max_bucket         5119                       (Unspecified)
system.caches.RequestType.ST.latency_hist_seqr::samples      8829724                       (Unspecified)
system.caches.RequestType.ST.latency_hist_seqr::mean    15.332250                       (Unspecified)
system.caches.RequestType.ST.latency_hist_seqr::gmean     1.225228                       (Unspecified)
system.caches.RequestType.ST.latency_hist_seqr::stdev    95.558479                       (Unspecified)
system.caches.RequestType.ST.latency_hist_seqr |     8752884     99.13%     99.13% |       70256      0.80%     99.93% |        2829      0.03%     99.96% |         788      0.01%     99.97% |        2255      0.03%     99.99% |         670      0.01%    100.00% |          42      0.00%    100.00% |           0      0.00%    100.00% |           0      0.00%    100.00% |           0      0.00%    100.00% (Unspecified)
system.caches.RequestType.ST.latency_hist_seqr::total      8829724                       (Unspecified)
system.caches.RequestType.ST.hit_latency_hist_seqr::bucket_size          128                       (Unspecified)
system.caches.RequestType.ST.hit_latency_hist_seqr::max_bucket         1279                       (Unspecified)
system.caches.RequestType.ST.hit_latency_hist_seqr::samples      8532193                       (Unspecified)
system.caches.RequestType.ST.hit_latency_hist_seqr::mean     1.023792                       (Unspecified)
system.caches.RequestType.ST.hit_latency_hist_seqr::gmean     1.015341                       (Unspecified)
system.caches.RequestType.ST.hit_latency_hist_seqr::stdev     0.890959                       (Unspecified)
system.caches.RequestType.ST.hit_latency_hist_seqr |     8532148    100.00%    100.00% |          17      0.00%    100.00% |          15      0.00%    100.00% |           5      0.00%    100.00% |           5      0.00%    100.00% |           2      0.00%    100.00% |           1      0.00%    100.00% |           0      0.00%    100.00% |           0      0.00%    100.00% |           0      0.00%    100.00% (Unspecified)
system.caches.RequestType.ST.hit_latency_hist_seqr::total      8532193                       (Unspecified)
system.caches.RequestType.ST.miss_latency_hist_seqr::bucket_size          512                       (Unspecified)
system.caches.RequestType.ST.miss_latency_hist_seqr::max_bucket         5119                       (Unspecified)
system.caches.RequestType.ST.miss_latency_hist_seqr::samples       297531                       (Unspecified)
system.caches.RequestType.ST.miss_latency_hist_seqr::mean   425.650924                       (Unspecified)
system.caches.RequestType.ST.miss_latency_hist_seqr::gmean   268.146457                       (Unspecified)
system.caches.RequestType.ST.miss_latency_hist_seqr::stdev   311.022749                       (Unspecified)
system.caches.RequestType.ST.miss_latency_hist_seqr |      220699     74.18%     74.18% |       70248     23.61%     97.79% |        2829      0.95%     98.74% |         788      0.26%     99.00% |        2255      0.76%     99.76% |         670      0.23%     99.99% |          42      0.01%    100.00% |           0      0.00%    100.00% |           0      0.00%    100.00% |           0      0.00%    100.00% (Unspecified)
system.caches.RequestType.ST.miss_latency_hist_seqr::total       297531                       (Unspecified)
system.caches.RequestType.IFETCH.latency_hist_seqr::bucket_size          512                       (Unspecified)
system.caches.RequestType.IFETCH.latency_hist_seqr::max_bucket         5119                       (Unspecified)
system.caches.RequestType.IFETCH.latency_hist_seqr::samples     76946922                       (Unspecified)
system.caches.RequestType.IFETCH.latency_hist_seqr::mean     1.039505                       (Unspecified)
system.caches.RequestType.IFETCH.latency_hist_seqr::gmean     1.001478                       (Unspecified)
system.caches.RequestType.IFETCH.latency_hist_seqr::stdev     3.726860                       (Unspecified)
system.caches.RequestType.IFETCH.latency_hist_seqr |    76946525    100.00%    100.00% |         308      0.00%    100.00% |          27      0.00%    100.00% |          54      0.00%    100.00% |           7      0.00%    100.00% |           1      0.00%    100.00% |           0      0.00%    100.00% |           0      0.00%    100.00% |           0      0.00%    100.00% |           0      0.00%    100.00% (Unspecified)
system.caches.RequestType.IFETCH.latency_hist_seqr::total     76946922                       (Unspecified)
system.caches.RequestType.IFETCH.hit_latency_hist_seqr::bucket_size            1                       (Unspecified)
system.caches.RequestType.IFETCH.hit_latency_hist_seqr::max_bucket            9                       (Unspecified)
system.caches.RequestType.IFETCH.hit_latency_hist_seqr::samples     76914070                       (Unspecified)
system.caches.RequestType.IFETCH.hit_latency_hist_seqr::mean     1.000001                       (Unspecified)
system.caches.RequestType.IFETCH.hit_latency_hist_seqr::gmean     1.000001                       (Unspecified)
system.caches.RequestType.IFETCH.hit_latency_hist_seqr::stdev     0.001123                       (Unspecified)
system.caches.RequestType.IFETCH.hit_latency_hist_seqr |           0      0.00%      0.00% |    76913973    100.00%    100.00% |          97      0.00%    100.00% |           0      0.00%    100.00% |           0      0.00%    100.00% |           0      0.00%    100.00% |           0      0.00%    100.00% |           0      0.00%    100.00% |           0      0.00%    100.00% |           0      0.00%    100.00% (Unspecified)
system.caches.RequestType.IFETCH.hit_latency_hist_seqr::total     76914070                       (Unspecified)
system.caches.RequestType.IFETCH.miss_latency_hist_seqr::bucket_size          512                       (Unspecified)
system.caches.RequestType.IFETCH.miss_latency_hist_seqr::max_bucket         5119                       (Unspecified)
[...]
system.o3Cpu7.iew.predictedTakenIncorrect       593963                       # Number of branches that were predicted taken incorrectly (Count)
system.o3Cpu7.iew.predictedNotTakenIncorrect       723674                       # Number of branches that were predicted not taken incorrectly (Count)
system.o3Cpu7.iew.branchMispredicts           1317637                       # Number of branch mispredicts detected at execute (Count)
system.o3Cpu7.iew.instsToCommit             132171514                       # Cumulative count of insts sent to commit (Count)
system.o3Cpu7.iew.writebackCount            131499066                       # Cumulative count of insts written-back (Count)
system.o3Cpu7.iew.producerInst              106719050                       # Number of instructions producing a value (Count)
system.o3Cpu7.iew.consumerInst              165253360                       # Number of instructions consuming a value (Count)
system.o3Cpu7.iew.wbRate                     1.007345                       # Insts written-back per cycle ((Count/Cycle))
system.o3Cpu7.iew.wbFanout                   0.645791                       # Average fanout of values written-back ((Count/Count))
system.o3Cpu7.interrupts.clk_domain.clock         3200                       # Clock period in ticks (Tick)
system.o3Cpu7.lsq0.forwLoads                   171259                       # Number of loads that had data forwarded from stores (Count)
system.o3Cpu7.lsq0.squashedLoads             15230128                       # Number of loads squashed (Count)
system.o3Cpu7.lsq0.ignoredResponses              7560                       # Number of memory responses ignored because the instruction is squashed (Count)
system.o3Cpu7.lsq0.memOrderViolation             2239                       # Number of memory ordering violations (Count)
system.o3Cpu7.lsq0.squashedStores             2107681                       # Number of stores squashed (Count)
system.o3Cpu7.lsq0.rescheduledLoads                39                       # Number of loads that were rescheduled (Count)
system.o3Cpu7.lsq0.blockedByCache              410659                       # Number of times an access to memory failed due to the cache being blocked (Count)
system.o3Cpu7.lsq0.loadToUse::samples         9854549                       # Distribution of cycle latency between the first time a load is issued and its completion (Unspecified)
system.o3Cpu7.lsq0.loadToUse::mean          68.102994                       # Distribution of cycle latency between the first time a load is issued and its completion (Unspecified)
system.o3Cpu7.lsq0.loadToUse::stdev        221.258559                       # Distribution of cycle latency between the first time a load is issued and its completion (Unspecified)
system.o3Cpu7.lsq0.loadToUse::0-9             8345334     84.69%     84.69% # Distribution of cycle latency between the first time a load is issued and its completion (Unspecified)
system.o3Cpu7.lsq0.loadToUse::10-19            202204      2.05%     86.74% # Distribution of cycle latency between the first time a load is issued and its completion (Unspecified)
system.o3Cpu7.lsq0.loadToUse::20-29             72783      0.74%     87.48% # Distribution of cycle latency between the first time a load is issued and its completion (Unspecified)
system.o3Cpu7.lsq0.loadToUse::30-39             25971      0.26%     87.74% # Distribution of cycle latency between the first time a load is issued and its completion (Unspecified)
system.o3Cpu7.lsq0.loadToUse::40-49             11968      0.12%     87.86% # Distribution of cycle latency between the first time a load is issued and its completion (Unspecified)
system.o3Cpu7.lsq0.loadToUse::50-59              7760      0.08%     87.94% # Distribution of cycle latency between the first time a load is issued and its completion (Unspecified)
system.o3Cpu7.lsq0.loadToUse::60-69              5424      0.06%     87.99% # Distribution of cycle latency between the first time a load is issued and its completion (Unspecified)
system.o3Cpu7.lsq0.loadToUse::70-79              4869      0.05%     88.04% # Distribution of cycle latency between the first time a load is issued and its completion (Unspecified)
system.o3Cpu7.lsq0.loadToUse::80-89              4570      0.05%     88.09% # Distribution of cycle latency between the first time a load is issued and its completion (Unspecified)
system.o3Cpu7.lsq0.loadToUse::90-99              4426      0.04%     88.14% # Distribution of cycle latency between the first time a load is issued and its completion (Unspecified)
system.o3Cpu7.lsq0.loadToUse::100-109            4309      0.04%     88.18% # Distribution of cycle latency between the first time a load is issued and its completion (Unspecified)
system.o3Cpu7.lsq0.loadToUse::110-119            4246      0.04%     88.22% # Distribution of cycle latency between the first time a load is issued and its completion (Unspecified)
system.o3Cpu7.lsq0.loadToUse::120-129            4157      0.04%     88.26% # Distribution of cycle latency between the first time a load is issued and its completion (Unspecified)
system.o3Cpu7.lsq0.loadToUse::130-139            4523      0.05%     88.31% # Distribution of cycle latency between the first time a load is issued and its completion (Unspecified)
system.o3Cpu7.lsq0.loadToUse::140-149            4409      0.04%     88.35% # Distribution of cycle latency between the first time a load is issued and its completion (Unspecified)
system.o3Cpu7.lsq0.loadToUse::150-159            4486      0.05%     88.40% # Distribution of cycle latency between the first time a load is issued and its completion (Unspecified)
system.o3Cpu7.lsq0.loadToUse::160-169            4632      0.05%     88.45% # Distribution of cycle latency between the first time a load is issued and its completion (Unspecified)
system.o3Cpu7.lsq0.loadToUse::170-179            4930      0.05%     88.50% # Distribution of cycle latency between the first time a load is issued and its completion (Unspecified)
system.o3Cpu7.lsq0.loadToUse::180-189            5378      0.05%     88.55% # Distribution of cycle latency between the first time a load is issued and its completion (Unspecified)
system.o3Cpu7.lsq0.loadToUse::190-199           13226      0.13%     88.69% # Distribution of cycle latency between the first time a load is issued and its completion (Unspecified)
system.o3Cpu7.lsq0.loadToUse::200-209           17197      0.17%     88.86% # Distribution of cycle latency between the first time a load is issued and its completion (Unspecified)
system.o3Cpu7.lsq0.loadToUse::210-219           15122      0.15%     89.01% # Distribution of cycle latency between the first time a load is issued and its completion (Unspecified)
system.o3Cpu7.lsq0.loadToUse::220-229            9757      0.10%     89.11% # Distribution of cycle latency between the first time a load is issued and its completion (Unspecified)
system.o3Cpu7.lsq0.loadToUse::230-239            7827      0.08%     89.19% # Distribution of cycle latency between the first time a load is issued and its completion (Unspecified)
system.o3Cpu7.lsq0.loadToUse::240-249            8179      0.08%     89.28% # Distribution of cycle latency between the first time a load is issued and its completion (Unspecified)
system.o3Cpu7.lsq0.loadToUse::250-259            9108      0.09%     89.37% # Distribution of cycle latency between the first time a load is issued and its completion (Unspecified)
system.o3Cpu7.lsq0.loadToUse::260-269           10498      0.11%     89.47% # Distribution of cycle latency between the first time a load is issued and its completion (Unspecified)
system.o3Cpu7.lsq0.loadToUse::270-279           11887      0.12%     89.59% # Distribution of cycle latency between the first time a load is issued and its completion (Unspecified)
system.o3Cpu7.lsq0.loadToUse::280-289           12921      0.13%     89.73% # Distribution of cycle latency between the first time a load is issued and its completion (Unspecified)
system.o3Cpu7.lsq0.loadToUse::290-299           13380      0.14%     89.86% # Distribution of cycle latency between the first time a load is issued and its completion (Unspecified)
system.o3Cpu7.lsq0.loadToUse::overflows        999068     10.14%    100.00% # Distribution of cycle latency between the first time a load is issued and its completion (Unspecified)
system.o3Cpu7.lsq0.loadToUse::min_value             2                       # Distribution of cycle latency between the first time a load is issued and its completion (Unspecified)
system.o3Cpu7.lsq0.loadToUse::max_value          4554                       # Distribution of cycle latency between the first time a load is issued and its completion (Unspecified)
system.o3Cpu7.lsq0.loadToUse::total           9854549                       # Distribution of cycle latency between the first time a load is issued and its completion (Unspecified)
system.o3Cpu7.mmu.dtb.rdAccesses             18751437                       # TLB accesses on read requests (Count)
system.o3Cpu7.mmu.dtb.wrAccesses              1843446                       # TLB accesses on write requests (Count)
system.o3Cpu7.mmu.dtb.rdMisses                 517498                       # TLB misses on read requests (Count)
system.o3Cpu7.mmu.dtb.wrMisses                    776                       # TLB misses on write requests (Count)
system.o3Cpu7.mmu.dtb.walker.power_state.pwrStateResidencyTicks::UNDEFINED  28365683599                       # Cumulative time (in ticks) in various power states (Tick)
system.o3Cpu7.mmu.itb.rdAccesses                    0                       # TLB accesses on read requests (Count)
system.o3Cpu7.mmu.itb.wrAccesses              9607510                       # TLB accesses on write requests (Count)
system.o3Cpu7.mmu.itb.rdMisses                      0                       # TLB misses on read requests (Count)
system.o3Cpu7.mmu.itb.wrMisses                    290                       # TLB misses on write requests (Count)
system.o3Cpu7.mmu.itb.walker.power_state.pwrStateResidencyTicks::UNDEFINED  28365683599                       # Cumulative time (in ticks) in various power states (Tick)
system.o3Cpu7.power_state.numTransitions           10                       # Number of power state transitions (Count)
system.o3Cpu7.power_state.ticksClkGated::samples            5                       # Distribution of time spent in the clock gated state (Tick)
system.o3Cpu7.power_state.ticksClkGated::mean    249035000                       # Distribution of time spent in the clock gated state (Tick)
system.o3Cpu7.power_state.ticksClkGated::stdev 295505350.793958                       # Distribution of time spent in the clock gated state (Tick)
system.o3Cpu7.power_state.ticksClkGated::1000-5e+10            5    100.00%    100.00% # Distribution of time spent in the clock gated state (Tick)
system.o3Cpu7.power_state.ticksClkGated::min_value      2165800                       # Distribution of time spent in the clock gated state (Tick)
system.o3Cpu7.power_state.ticksClkGated::max_value    756908600                       # Distribution of time spent in the clock gated state (Tick)
system.o3Cpu7.power_state.ticksClkGated::total            5                       # Distribution of time spent in the clock gated state (Tick)
system.o3Cpu7.power_state.pwrStateResidencyTicks::ON  22702188400                       # Cumulative time (in ticks) in various power states (Tick)
system.o3Cpu7.power_state.pwrStateResidencyTicks::CLK_GATED   1245175000                       # Cumulative time (in ticks) in various power states (Tick)
system.o3Cpu7.power_state.pwrStateResidencyTicks::OFF   4418320199                       # Cumulative time (in ticks) in various power states (Tick)
system.o3Cpu7.rename.squashCycles             1118136                       # Number of cycles rename is squashing (Cycle)
system.o3Cpu7.rename.idleCycles              16128926                       # Number of cycles rename is idle (Cycle)
system.o3Cpu7.rename.blockCycles             53807963                       # Number of cycles rename is blocking (Cycle)
system.o3Cpu7.rename.serializeStallCycles       169666                       # count of cycles rename stalled for serializing inst (Cycle)
system.o3Cpu7.rename.runCycles               14545510                       # Number of cycles rename is running (Cycle)
system.o3Cpu7.rename.unblockCycles            6187661                       # Number of cycles rename is unblocking (Cycle)
system.o3Cpu7.rename.renamedInsts           194573527                       # Number of instructions processed by rename (Count)
system.o3Cpu7.rename.ROBFullEvents             830471                       # Number of times rename has blocked due to ROB full (Count)
system.o3Cpu7.rename.IQFullEvents             2795794                       # Number of times rename has blocked due to IQ full (Count)
system.o3Cpu7.rename.LQFullEvents             1860653                       # Number of times rename has blocked due to LQ full (Count)
system.o3Cpu7.rename.SQFullEvents              603678                       # Number of times rename has blocked due to SQ full (Count)
system.o3Cpu7.rename.renamedOperands        420172440                       # Number of destination operands rename has renamed (Count)
system.o3Cpu7.rename.lookups                723702028                       # Number of register rename lookups that rename has made (Count)
system.o3Cpu7.rename.intLookups             244732088                       # Number of integer rename lookups (Count)
system.o3Cpu7.rename.fpLookups                  42312                       # Number of floating rename lookups (Count)
system.o3Cpu7.rename.committedMaps          161521327                       # Number of HB maps that are committed (Count)
system.o3Cpu7.rename.undoneMaps             258650527                       # Number of HB maps that are undone due to squashing (Count)
system.o3Cpu7.rename.serializing                 2176                       # count of serializing insts renamed (Count)
system.o3Cpu7.rename.tempSerializing             2251                       # count of temporary serializing insts renamed (Count)
system.o3Cpu7.rename.skidInsts               24200873                       # count of insts added to the skid buffer (Count)
system.o3Cpu7.rob.reads                     261982851                       # The number of ROB reads (Count)
system.o3Cpu7.rob.writes                    366183717                       # The number of ROB writes (Count)
system.o3Cpu7.thread_0.numInsts              45379115                       # Number of Instructions committed (Count)
system.o3Cpu7.thread_0.numOps                76103188                       # Number of Ops committed (Count)
system.o3Cpu7.thread_0.numMemRefs                   0                       # Number of Memory References (Count)
system.pc.bad_addr.power_state.pwrStateResidencyTicks::UNDEFINED  28365683599                       # Cumulative time (in ticks) in various power states (Tick)
system.pc.com_1.power_state.pwrStateResidencyTicks::UNDEFINED  28365683599                       # Cumulative time (in ticks) in various power states (Tick)
system.pc.default_bus.power_state.pwrStateResidencyTicks::UNDEFINED  28365683599                       # Cumulative time (in ticks) in various power states (Tick)
system.pc.empty_isa.power_state.pwrStateResidencyTicks::UNDEFINED  28365683599                       # Cumulative time (in ticks) in various power states (Tick)
system.pc.fake_com_2.power_state.pwrStateResidencyTicks::UNDEFINED  28365683599                       # Cumulative time (in ticks) in various power states (Tick)
system.pc.fake_com_3.power_state.pwrStateResidencyTicks::UNDEFINED  28365683599                       # Cumulative time (in ticks) in various power states (Tick)
system.pc.fake_com_4.power_state.pwrStateResidencyTicks::UNDEFINED  28365683599                       # Cumulative time (in ticks) in various power states (Tick)
system.pc.fake_floppy.power_state.pwrStateResidencyTicks::UNDEFINED  28365683599                       # Cumulative time (in ticks) in various power states (Tick)
system.pc.pci_host.power_state.pwrStateResidencyTicks::UNDEFINED  28365683599                       # Cumulative time (in ticks) in various power states (Tick)
system.pc.south_bridge.cmos.power_state.pwrStateResidencyTicks::UNDEFINED  28365683599                       # Cumulative time (in ticks) in various power states (Tick)
system.pc.south_bridge.dma1.power_state.pwrStateResidencyTicks::UNDEFINED  28365683599                       # Cumulative time (in ticks) in various power states (Tick)
system.pc.south_bridge.ide.disks0.IdeDisk.dmaReadFullPages            0                       # Number of full page size DMA reads (not PRD). (Count)
system.pc.south_bridge.ide.disks0.IdeDisk.dmaReadBytes            0                       # Number of bytes transfered via DMA reads (not PRD). (Byte)
system.pc.south_bridge.ide.disks0.IdeDisk.dmaReadTxs            0                       # Number of DMA read transactions (not PRD). (Count)
system.pc.south_bridge.ide.disks0.IdeDisk.dmaWriteFullPages            0                       # Number of full page size DMA writes. (Count)
system.pc.south_bridge.ide.disks0.IdeDisk.dmaWriteBytes            0                       # Number of bytes transfered via DMA writes. (Byte)
system.pc.south_bridge.ide.disks0.IdeDisk.dmaWriteTxs            0                       # Number of DMA write transactions. (Count)
system.pc.south_bridge.ide.disks1.IdeDisk.dmaReadFullPages            0                       # Number of full page size DMA reads (not PRD). (Count)
system.pc.south_bridge.ide.disks1.IdeDisk.dmaReadBytes            0                       # Number of bytes transfered via DMA reads (not PRD). (Byte)
system.pc.south_bridge.ide.disks1.IdeDisk.dmaReadTxs            0                       # Number of DMA read transactions (not PRD). (Count)
system.pc.south_bridge.ide.disks1.IdeDisk.dmaWriteFullPages            0                       # Number of full page size DMA writes. (Count)
system.pc.south_bridge.ide.disks1.IdeDisk.dmaWriteBytes            0                       # Number of bytes transfered via DMA writes. (Byte)
system.pc.south_bridge.ide.disks1.IdeDisk.dmaWriteTxs            0                       # Number of DMA write transactions. (Count)
system.pc.south_bridge.ide.power_state.pwrStateResidencyTicks::UNDEFINED  28365683599                       # Cumulative time (in ticks) in various power states (Tick)
system.pc.south_bridge.io_apic.power_state.pwrStateResidencyTicks::UNDEFINED  28365683599                       # Cumulative time (in ticks) in various power states (Tick)
system.pc.south_bridge.keyboard.power_state.pwrStateResidencyTicks::UNDEFINED  28365683599                       # Cumulative time (in ticks) in various power states (Tick)
system.pc.south_bridge.pic1.power_state.pwrStateResidencyTicks::UNDEFINED  28365683599                       # Cumulative time (in ticks) in various power states (Tick)
system.pc.south_bridge.pic2.power_state.pwrStateResidencyTicks::UNDEFINED  28365683599                       # Cumulative time (in ticks) in various power states (Tick)
system.pc.south_bridge.pit.power_state.pwrStateResidencyTicks::UNDEFINED  28365683599                       # Cumulative time (in ticks) in various power states (Tick)
system.pc.south_bridge.speaker.power_state.pwrStateResidencyTicks::UNDEFINED  28365683599                       # Cumulative time (in ticks) in various power states (Tick)
system.workload.inst.arm                            0                       # number of arm instructions executed (Count)
system.workload.inst.quiesce                        0                       # number of quiesce instructions executed (Count)

---------- End Simulation Statistics   ----------
