
---------- Begin Simulation Statistics ----------
simSeconds                                   0.072343                       # Number of seconds simulated (Second)
simTicks                                  72343248900                       # Number of ticks simulated (Tick)
finalTick                                163580344967600                       # Number of ticks from beginning of simulation (restored from checkpoints and never reset) (Tick)
simFreq                                  1000000000000                       # The number of ticks per simulated second ((Tick/Second))
hostSeconds                                  11055.59                       # Real time elapsed on the host (Second)
hostTickRate                                  6543588                       # The number of ticks simulated per host second (ticks/s) ((Tick/Second))
hostMemory                                   19954796                       # Number of bytes of host memory used (Byte)
simInsts                                    286954386                       # Number of instructions simulated (Count)
simOps                                      477218115                       # Number of ops (including micro ops) simulated (Count)
hostInstRate                                    25956                       # Simulator instruction rate (inst/s) ((Count/Second))
hostOpRate                                      43165                       # Simulator op (including micro ops) rate (op/s) ((Count/Second))
system.caches.delayHistogram::bucket_size          512                       # delay histogram for all message (Unspecified)
system.caches.delayHistogram::max_bucket         5119                       # delay histogram for all message (Unspecified)
system.caches.delayHistogram::samples        46670788                       # delay histogram for all message (Unspecified)
system.caches.delayHistogram::mean           0.548928                       # delay histogram for all message (Unspecified)
system.caches.delayHistogram::stdev          2.556194                       # delay histogram for all message (Unspecified)
system.caches.delayHistogram             |    46670764    100.00%    100.00% |           6      0.00%    100.00% |           6      0.00%    100.00% |           7      0.00%    100.00% |           1      0.00%    100.00% |           2      0.00%    100.00% |           0      0.00%    100.00% |           1      0.00%    100.00% |           0      0.00%    100.00% |           1      0.00%    100.00% # delay histogram for all message (Unspecified)
system.caches.delayHistogram::total          46670788                       # delay histogram for all message (Unspecified)
system.caches.m_outstandReqHistSeqr::bucket_size            2                       (Unspecified)
system.caches.m_outstandReqHistSeqr::max_bucket           19                       (Unspecified)
system.caches.m_outstandReqHistSeqr::samples    149966612                       (Unspecified)
system.caches.m_outstandReqHistSeqr::mean     3.479177                       (Unspecified)
system.caches.m_outstandReqHistSeqr::gmean     2.130612                       (Unspecified)
system.caches.m_outstandReqHistSeqr::stdev     4.099023                       (Unspecified)
system.caches.m_outstandReqHistSeqr      |    72764171     48.52%     48.52% |    38954026     25.98%     74.50% |    10691653      7.13%     81.62% |     5518887      3.68%     85.30% |     4337802      2.89%     88.20% |     3776072      2.52%     90.72% |     6295445      4.20%     94.91% |     2874150      1.92%     96.83% |     4754406      3.17%    100.00% |           0      0.00%    100.00% (Unspecified)
system.caches.m_outstandReqHistSeqr::total    149966612                       (Unspecified)
system.caches.m_latencyHistSeqr::bucket_size         1024                       (Unspecified)
system.caches.m_latencyHistSeqr::max_bucket        10239                       (Unspecified)
system.caches.m_latencyHistSeqr::samples    150537489                       (Unspecified)
system.caches.m_latencyHistSeqr::mean       44.072912                       (Unspecified)
system.caches.m_latencyHistSeqr::gmean       1.357296                       (Unspecified)
system.caches.m_latencyHistSeqr::stdev     228.112821                       (Unspecified)
system.caches.m_latencyHistSeqr          |   147974314     98.30%     98.30% |     2267376      1.51%     99.80% |      268333      0.18%     99.98% |       25334      0.02%    100.00% |        1952      0.00%    100.00% |         169      0.00%    100.00% |          11      0.00%    100.00% |           0      0.00%    100.00% |           0      0.00%    100.00% |           0      0.00%    100.00% (Unspecified)
system.caches.m_latencyHistSeqr::total      150537489                       (Unspecified)
system.caches.m_hitLatencyHistSeqr::bucket_size         1024                       (Unspecified)
system.caches.m_hitLatencyHistSeqr::max_bucket        10239                       (Unspecified)
system.caches.m_hitLatencyHistSeqr::samples    143801155                       (Unspecified)
system.caches.m_hitLatencyHistSeqr::mean     1.013332                       (Unspecified)
system.caches.m_hitLatencyHistSeqr::gmean     1.006287                       (Unspecified)
system.caches.m_hitLatencyHistSeqr::stdev     2.549239                       (Unspecified)
system.caches.m_hitLatencyHistSeqr       |   143800937    100.00%    100.00% |         165      0.00%    100.00% |          38      0.00%    100.00% |          13      0.00%    100.00% |           1      0.00%    100.00% |           1      0.00%    100.00% |           0      0.00%    100.00% |           0      0.00%    100.00% |           0      0.00%    100.00% |           0      0.00%    100.00% (Unspecified)
system.caches.m_hitLatencyHistSeqr::total    143801155                       (Unspecified)
system.caches.m_missLatencyHistSeqr::bucket_size         1024                       (Unspecified)
system.caches.m_missLatencyHistSeqr::max_bucket        10239                       (Unspecified)
system.caches.m_missLatencyHistSeqr::samples      6736334                       (Unspecified)
system.caches.m_missLatencyHistSeqr::mean   963.269808                       (Unspecified)
system.caches.m_missLatencyHistSeqr::gmean   806.840451                       (Unspecified)
system.caches.m_missLatencyHistSeqr::stdev   527.446146                       (Unspecified)
system.caches.m_missLatencyHistSeqr      |     4173377     61.95%     61.95% |     2267211     33.66%     95.61% |      268295      3.98%     99.59% |       25321      0.38%     99.97% |        1951      0.03%    100.00% |         168      0.00%    100.00% |          11      0.00%    100.00% |           0      0.00%    100.00% |           0      0.00%    100.00% |           0      0.00%    100.00% (Unspecified)
system.caches.m_missLatencyHistSeqr::total      6736334                       (Unspecified)
system.caches.delayVCHist.vnet_0::bucket_size          512                       # delay histogram for vnet_0 (Unspecified)
system.caches.delayVCHist.vnet_0::max_bucket         5119                       # delay histogram for vnet_0 (Unspecified)
system.caches.delayVCHist.vnet_0::samples     19933875                       # delay histogram for vnet_0 (Unspecified)
system.caches.delayVCHist.vnet_0::mean       1.195377                       # delay histogram for vnet_0 (Unspecified)
system.caches.delayVCHist.vnet_0::stdev      3.727174                       # delay histogram for vnet_0 (Unspecified)
system.caches.delayVCHist.vnet_0         |    19933851    100.00%    100.00% |           6      0.00%    100.00% |           6      0.00%    100.00% |           7      0.00%    100.00% |           1      0.00%    100.00% |           2      0.00%    100.00% |           0      0.00%    100.00% |           1      0.00%    100.00% |           0      0.00%    100.00% |           1      0.00%    100.00% # delay histogram for vnet_0 (Unspecified)
system.caches.delayVCHist.vnet_0::total      19933875                       # delay histogram for vnet_0 (Unspecified)
system.caches.delayVCHist.vnet_1::bucket_size            8                       # delay histogram for vnet_1 (Unspecified)
system.caches.delayVCHist.vnet_1::max_bucket           79                       # delay histogram for vnet_1 (Unspecified)
system.caches.delayVCHist.vnet_1::samples     26615587                       # delay histogram for vnet_1 (Unspecified)
system.caches.delayVCHist.vnet_1::mean       0.067266                       # delay histogram for vnet_1 (Unspecified)
system.caches.delayVCHist.vnet_1::stdev      0.712013                       # delay histogram for vnet_1 (Unspecified)
system.caches.delayVCHist.vnet_1         |    26513225     99.62%     99.62% |       99398      0.37%     99.99% |        2107      0.01%    100.00% |         620      0.00%    100.00% |         198      0.00%    100.00% |          35      0.00%    100.00% |           4      0.00%    100.00% |           0      0.00%    100.00% |           0      0.00%    100.00% |           0      0.00%    100.00% # delay histogram for vnet_1 (Unspecified)
system.caches.delayVCHist.vnet_1::total      26615587                       # delay histogram for vnet_1 (Unspecified)
system.caches.delayVCHist.vnet_2::bucket_size            1                       # delay histogram for vnet_2 (Unspecified)
system.caches.delayVCHist.vnet_2::max_bucket            9                       # delay histogram for vnet_2 (Unspecified)
system.caches.delayVCHist.vnet_2::samples       121326                       # delay histogram for vnet_2 (Unspecified)
system.caches.delayVCHist.vnet_2::mean       0.000610                       # delay histogram for vnet_2 (Unspecified)
system.caches.delayVCHist.vnet_2::stdev      0.037647                       # delay histogram for vnet_2 (Unspecified)
system.caches.delayVCHist.vnet_2         |      121292     99.97%     99.97% |           0      0.00%     99.97% |          31      0.03%    100.00% |           0      0.00%    100.00% |           3      0.00%    100.00% |           0      0.00%    100.00% |           0      0.00%    100.00% |           0      0.00%    100.00% |           0      0.00%    100.00% |           0      0.00%    100.00% # delay histogram for vnet_2 (Unspecified)
system.caches.delayVCHist.vnet_2::total        121326                       # delay histogram for vnet_2 (Unspecified)
system.caches.L1Cache_Controller.Load    |     7036057     12.14%     12.14% |     7146792     12.33%     24.48% |     7133342     12.31%     36.79% |     7246463     12.51%     49.29% |     7447734     12.85%     62.15% |     6893109     11.90%     74.04% |     7454982     12.87%     86.91% |     7584077     13.09%    100.00% (Unspecified)
system.caches.L1Cache_Controller.Load::total     57942556                       (Unspecified)
system.caches.L1Cache_Controller.Ifetch  |     2798939     12.36%     12.36% |     2758966     12.19%     24.55% |     2781248     12.28%     36.83% |     2934335     12.96%     49.79% |     2874600     12.70%     62.49% |     2746215     12.13%     74.62% |     2862830     12.64%     87.27% |     2882953     12.73%    100.00% (Unspecified)
system.caches.L1Cache_Controller.Ifetch::total     22640086                       (Unspecified)
system.caches.L1Cache_Controller.Store   |     8712002     12.45%     12.45% |     8634555     12.34%     24.80% |     8665779     12.39%     37.18% |     8916649     12.75%     49.93% |     8798695     12.58%     62.51% |     8612225     12.31%     74.82% |     8792997     12.57%     87.39% |     8821958     12.61%    100.00% (Unspecified)
system.caches.L1Cache_Controller.Store::total     69954860                       (Unspecified)
system.caches.L1Cache_Controller.Inv     |       13932     11.83%     11.83% |       13386     11.36%     23.19% |       13318     11.30%     34.49% |       16167     13.72%     48.21% |       16251     13.79%     62.01% |       14304     12.14%     74.15% |       15211     12.91%     87.06% |       15247     12.94%    100.00% (Unspecified)
system.caches.L1Cache_Controller.Inv::total       117816                       (Unspecified)
system.caches.L1Cache_Controller.L1_Replacement |      836863     12.54%     12.54% |      832296     12.47%     25.01% |      833166     12.49%     37.50% |      839175     12.58%     50.08% |      833313     12.49%     62.56% |      832523     12.48%     75.04% |      833418     12.49%     87.53% |      832141     12.47%    100.00% (Unspecified)
system.caches.L1Cache_Controller.L1_Replacement::total      6672895                       (Unspecified)
system.caches.L1Cache_Controller.Fwd_GETX |          29     13.88%     13.88% |          29     13.88%     27.75% |          27     12.92%     40.67% |          20      9.57%     50.24% |          19      9.09%     59.33% |          25     11.96%     71.29% |          32     15.31%     86.60% |          28     13.40%    100.00% (Unspecified)
system.caches.L1Cache_Controller.Fwd_GETX::total          209                       (Unspecified)
system.caches.L1Cache_Controller.Fwd_GETS |        1004     30.42%     30.42% |         405     12.27%     42.68% |         236      7.15%     49.83% |         363     11.00%     60.83% |         451     13.66%     74.49% |         148      4.48%     78.98% |         301      9.12%     88.09% |         393     11.91%    100.00% (Unspecified)
system.caches.L1Cache_Controller.Fwd_GETS::total         3301                       (Unspecified)
system.caches.L1Cache_Controller.Data    |         154    100.00%    100.00% |           0      0.00%    100.00% |           0      0.00%    100.00% |           0      0.00%    100.00% |           0      0.00%    100.00% |           0      0.00%    100.00% |           0      0.00%    100.00% |           0      0.00%    100.00% (Unspecified)
system.caches.L1Cache_Controller.Data::total          154                       (Unspecified)
system.caches.L1Cache_Controller.Data_Exclusive |      573852     12.51%     12.51% |      572365     12.48%     24.99% |      572280     12.48%     37.47% |      579075     12.63%     50.09% |      572770     12.49%     62.58% |      571281     12.46%     75.04% |      572672     12.49%     87.52% |      572311     12.48%    100.00% (Unspecified)
system.caches.L1Cache_Controller.Data_Exclusive::total      4586606                       (Unspecified)
system.caches.L1Cache_Controller.DataS_fromL1 |         419     12.69%     12.69% |         793     24.02%     36.72% |         511     15.48%     52.20% |         364     11.03%     63.22% |         258      7.82%     71.04% |         339     10.27%     81.31% |         272      8.24%     89.55% |         345     10.45%    100.00% (Unspecified)
system.caches.L1Cache_Controller.DataS_fromL1::total         3301                       (Unspecified)
system.caches.L1Cache_Controller.Data_all_Acks |      271245     12.64%     12.64% |      266589     12.42%     25.06% |      268097     12.49%     37.56% |      267589     12.47%     50.03% |      268310     12.50%     62.53% |      268364     12.51%     75.04% |      268208     12.50%     87.54% |      267398     12.46%    100.00% (Unspecified)
system.caches.L1Cache_Controller.Data_all_Acks::total      2145800                       (Unspecified)
system.caches.L1Cache_Controller.Ack     |        1973     88.52%     88.52% |          15      0.67%     89.19% |          14      0.63%     89.82% |          49      2.20%     92.01% |         114      5.11%     97.13% |          15      0.67%     97.80% |          20      0.90%     98.70% |          29      1.30%    100.00% (Unspecified)
system.caches.L1Cache_Controller.Ack::total         2229                       (Unspecified)
system.caches.L1Cache_Controller.Ack_all |         470     74.96%     74.96% |          15      2.39%     77.35% |          14      2.23%     79.59% |          32      5.10%     84.69% |          38      6.06%     90.75% |          15      2.39%     93.14% |          20      3.19%     96.33% |          23      3.67%    100.00% (Unspecified)
system.caches.L1Cache_Controller.Ack_all::total          627                       (Unspecified)
system.caches.L1Cache_Controller.WB_Ack  |      825399     12.55%     12.55% |      821854     12.50%     25.05% |      822541     12.51%     37.56% |      825902     12.56%     50.11% |      819622     12.46%     62.58% |      821005     12.48%     75.06% |      820562     12.48%     87.54% |      819407     12.46%    100.00% (Unspecified)
system.caches.L1Cache_Controller.WB_Ack::total      6576292                       (Unspecified)
system.caches.L1Cache_Controller.NP.Load |      578055     12.51%     12.51% |      576490     12.47%     24.98% |      576835     12.48%     37.46% |      583571     12.62%     50.08% |      577183     12.49%     62.57% |      575702     12.45%     75.02% |      577638     12.50%     87.52% |      576990     12.48%    100.00% (Unspecified)
system.caches.L1Cache_Controller.NP.Load::total      4622464                       (Unspecified)
system.caches.L1Cache_Controller.NP.Ifetch |        4281     17.80%     17.80% |        2190      9.11%     26.91% |        2671     11.11%     38.01% |        2515     10.46%     48.47% |        3489     14.51%     62.98% |        2536     10.54%     73.52% |        3076     12.79%     86.31% |        3292     13.69%    100.00% (Unspecified)
system.caches.L1Cache_Controller.NP.Ifetch::total        24050                       (Unspecified)
system.caches.L1Cache_Controller.NP.Store |      254913     12.56%     12.56% |      253898     12.51%     25.08% |      253950     12.52%     37.60% |      253360     12.49%     50.09% |      252937     12.47%     62.55% |      254572     12.55%     75.10% |      252988     12.47%     87.57% |      252144     12.43%    100.00% (Unspecified)
system.caches.L1Cache_Controller.NP.Store::total      2028762                       (Unspecified)
system.caches.L1Cache_Controller.NP.Inv  |        2151     13.00%     13.00% |        1748     10.56%     23.56% |        1970     11.90%     35.46% |        1913     11.56%     47.02% |        2315     13.99%     61.01% |        1906     11.52%     72.53% |        2301     13.90%     86.43% |        2246     13.57%    100.00% (Unspecified)
system.caches.L1Cache_Controller.NP.Inv::total        16550                       (Unspecified)
system.caches.L1Cache_Controller.I.Load  |         819     11.44%     11.44% |         958     13.38%     24.82% |         985     13.76%     38.58% |         947     13.23%     51.80% |         915     12.78%     64.58% |         826     11.54%     76.12% |         841     11.75%     87.86% |         869     12.14%    100.00% (Unspecified)
system.caches.L1Cache_Controller.I.Load::total         7160                       (Unspecified)
system.caches.L1Cache_Controller.I.Ifetch |        7291     14.21%     14.21% |        5966     11.62%     25.83% |        6207     12.09%     37.92% |        6370     12.41%     50.33% |        6566     12.79%     63.13% |        6103     11.89%     75.02% |        6367     12.41%     87.42% |        6455     12.58%    100.00% (Unspecified)
system.caches.L1Cache_Controller.I.Ifetch::total        51325                       (Unspecified)
system.caches.L1Cache_Controller.I.Store |         312     14.81%     14.81% |         246     11.68%     26.50% |         241     11.44%     37.94% |         266     12.63%     50.57% |         249     11.82%     62.39% |         245     11.63%     74.03% |         242     11.49%     85.52% |         305     14.48%    100.00% (Unspecified)
system.caches.L1Cache_Controller.I.Store::total         2106                       (Unspecified)
system.caches.L1Cache_Controller.I.L1_Replacement |        2859      7.77%      7.77% |        3959     10.76%     18.52% |        3381      9.19%     27.71% |        6189     16.82%     44.53% |        5799     15.76%     60.28% |        4690     12.74%     73.02% |        5067     13.77%     86.79% |        4862     13.21%    100.00% (Unspecified)
system.caches.L1Cache_Controller.I.L1_Replacement::total        36806                       (Unspecified)
system.caches.L1Cache_Controller.S.Load  |     1524061     11.55%     11.55% |     1687922     12.79%     24.34% |     1645691     12.47%     36.81% |     1464847     11.10%     47.91% |     1802087     13.65%     61.56% |     1396051     10.58%     72.14% |     1906919     14.45%     86.59% |     1769731     13.41%    100.00% (Unspecified)
system.caches.L1Cache_Controller.S.Load::total     13197309                       (Unspecified)
system.caches.L1Cache_Controller.S.Ifetch |     2787367     12.35%     12.35% |     2750810     12.19%     24.54% |     2772370     12.29%     36.83% |     2925450     12.96%     49.79% |     2864545     12.69%     62.49% |     2737576     12.13%     74.62% |     2853387     12.65%     87.27% |     2873206     12.73%    100.00% (Unspecified)
system.caches.L1Cache_Controller.S.Ifetch::total     22564711                       (Unspecified)
system.caches.L1Cache_Controller.S.Store |         316     66.81%     66.81% |          15      3.17%     69.98% |          14      2.96%     72.94% |          32      6.77%     79.70% |          38      8.03%     87.74% |          15      3.17%     90.91% |          20      4.23%     95.14% |          23      4.86%    100.00% (Unspecified)
system.caches.L1Cache_Controller.S.Store::total          473                       (Unspecified)
system.caches.L1Cache_Controller.S.Inv   |        8350     13.99%     13.99% |        6998     11.73%     25.72% |        7239     12.13%     37.85% |        7359     12.33%     50.18% |        7746     12.98%     63.16% |        7051     11.81%     74.97% |        7412     12.42%     87.39% |        7526     12.61%    100.00% (Unspecified)
system.caches.L1Cache_Controller.S.Inv::total        59681                       (Unspecified)
system.caches.L1Cache_Controller.S.L1_Replacement |        8605     14.39%     14.39% |        6481     10.84%     25.23% |        7243     12.11%     37.35% |        7082     11.85%     49.19% |        7892     13.20%     62.39% |        6825     11.42%     73.81% |        7789     13.03%     86.84% |        7871     13.16%    100.00% (Unspecified)
system.caches.L1Cache_Controller.S.L1_Replacement::total        59788                       (Unspecified)
system.caches.L1Cache_Controller.E.Load  |     2156781     12.15%     12.15% |     2157542     12.15%     24.30% |     2163301     12.18%     36.49% |     2310950     13.02%     49.50% |     2233080     12.58%     62.08% |     2205361     12.42%     74.50% |     2142249     12.07%     86.57% |     2384593     13.43%    100.00% (Unspecified)
system.caches.L1Cache_Controller.E.Load::total     17753857                       (Unspecified)
system.caches.L1Cache_Controller.E.Store |       75335     12.62%     12.62% |       74771     12.52%     25.14% |       74821     12.53%     37.67% |       75379     12.63%     50.30% |       74079     12.41%     62.71% |       74325     12.45%     75.15% |       74257     12.44%     87.59% |       74082     12.41%    100.00% (Unspecified)
system.caches.L1Cache_Controller.E.Store::total       597049                       (Unspecified)
system.caches.L1Cache_Controller.E.Inv   |        1860      8.37%      8.37% |        2369     10.65%     19.02% |        2763     12.43%     31.45% |        3880     17.45%     48.90% |        3118     14.02%     62.92% |        2605     11.72%     74.64% |        2796     12.58%     87.21% |        2843     12.79%    100.00% (Unspecified)
system.caches.L1Cache_Controller.E.Inv::total        22234                       (Unspecified)
system.caches.L1Cache_Controller.E.L1_Replacement |      492379     12.43%     12.43% |      495078     12.49%     24.92% |      494726     12.48%     37.40% |      499690     12.61%     50.01% |      495435     12.50%     62.52% |      494460     12.48%     75.00% |      495502     12.50%     87.50% |      495318     12.50%    100.00% (Unspecified)
system.caches.L1Cache_Controller.E.L1_Replacement::total      3962588                       (Unspecified)
system.caches.L1Cache_Controller.E.Fwd_GETX |          10     16.13%     16.13% |          10     16.13%     32.26% |           8     12.90%     45.16% |           8     12.90%     58.06% |           2      3.23%     61.29% |           7     11.29%     72.58% |           8     12.90%     85.48% |           9     14.52%    100.00% (Unspecified)
system.caches.L1Cache_Controller.E.Fwd_GETX::total           62                       (Unspecified)
system.caches.L1Cache_Controller.E.Fwd_GETS |         505     19.55%     19.55% |         395     15.29%     34.84% |         227      8.79%     43.63% |         330     12.78%     56.41% |         333     12.89%     69.30% |         137      5.30%     74.60% |         284     10.99%     85.60% |         372     14.40%    100.00% (Unspecified)
system.caches.L1Cache_Controller.E.Fwd_GETS::total         2583                       (Unspecified)
system.caches.L1Cache_Controller.M.Load  |     2776341     12.42%     12.42% |     2723878     12.18%     24.60% |     2746530     12.28%     36.88% |     2886148     12.91%     49.79% |     2834469     12.68%     62.46% |     2715169     12.14%     74.60% |     2827335     12.64%     87.25% |     2851894     12.75%    100.00% (Unspecified)
system.caches.L1Cache_Controller.M.Load::total     22361764                       (Unspecified)
system.caches.L1Cache_Controller.M.Store |     8381126     12.45%     12.45% |     8305624     12.34%     24.78% |     8336752     12.38%     37.17% |     8587612     12.76%     49.92% |     8471392     12.58%     62.51% |     8283065     12.30%     74.81% |     8465490     12.57%     87.38% |     8495404     12.62%    100.00% (Unspecified)
system.caches.L1Cache_Controller.M.Store::total     67326465                       (Unspecified)
system.caches.L1Cache_Controller.M.Inv   |        1571      8.16%      8.16% |        2257     11.73%     19.89% |        1324      6.88%     26.77% |        2991     15.54%     42.31% |        3060     15.90%     58.21% |        2731     14.19%     72.40% |        2693     13.99%     86.39% |        2620     13.61%    100.00% (Unspecified)
system.caches.L1Cache_Controller.M.Inv::total        19247                       (Unspecified)
system.caches.L1Cache_Controller.M.L1_Replacement |      333020     12.74%     12.74% |      326776     12.50%     25.24% |      327815     12.54%     37.79% |      326212     12.48%     50.27% |      324187     12.40%     62.67% |      326545     12.49%     75.16% |      325060     12.44%     87.60% |      324089     12.40%    100.00% (Unspecified)
system.caches.L1Cache_Controller.M.L1_Replacement::total      2613704                       (Unspecified)
system.caches.L1Cache_Controller.M.Fwd_GETX |          19     12.93%     12.93% |          19     12.93%     25.85% |          19     12.93%     38.78% |          12      8.16%     46.94% |          17     11.56%     58.50% |          18     12.24%     70.75% |          24     16.33%     87.07% |          19     12.93%    100.00% (Unspecified)
system.caches.L1Cache_Controller.M.Fwd_GETX::total          147                       (Unspecified)
system.caches.L1Cache_Controller.M.Fwd_GETS |         499     69.50%     69.50% |          10      1.39%     70.89% |           9      1.25%     72.14% |          33      4.60%     76.74% |         118     16.43%     93.18% |          11      1.53%     94.71% |          17      2.37%     97.08% |          21      2.92%    100.00% (Unspecified)
system.caches.L1Cache_Controller.M.Fwd_GETS::total          718                       (Unspecified)
system.caches.L1Cache_Controller.IS.Inv  |           0      0.00%      0.00% |          14     14.43%     14.43% |          22     22.68%     37.11% |          23     23.71%     60.82% |          12     12.37%     73.20% |           8      8.25%     81.44% |           8      8.25%     89.69% |          10     10.31%    100.00% (Unspecified)
system.caches.L1Cache_Controller.IS.Inv::total           97                       (Unspecified)
system.caches.L1Cache_Controller.IS.L1_Replacement |           0      0.00%      0.00% |           2     25.00%     25.00% |           1     12.50%     37.50% |           2     25.00%     62.50% |           0      0.00%     62.50% |           2     25.00%     87.50% |           0      0.00%     87.50% |           1     12.50%    100.00% (Unspecified)
system.caches.L1Cache_Controller.IS.L1_Replacement::total            8                       (Unspecified)
system.caches.L1Cache_Controller.IS.Data_Exclusive |      573852     12.51%     12.51% |      572365     12.48%     24.99% |      572280     12.48%     37.47% |      579075     12.63%     50.09% |      572770     12.49%     62.58% |      571281     12.46%     75.04% |      572672     12.49%     87.52% |      572311     12.48%    100.00% (Unspecified)
system.caches.L1Cache_Controller.IS.Data_Exclusive::total      4586606                       (Unspecified)
system.caches.L1Cache_Controller.IS.DataS_fromL1 |         419     12.69%     12.69% |         793     24.02%     36.72% |         511     15.48%     52.20% |         364     11.03%     63.22% |         258      7.82%     71.04% |         339     10.27%     81.31% |         272      8.24%     89.55% |         345     10.45%    100.00% (Unspecified)
system.caches.L1Cache_Controller.IS.DataS_fromL1::total         3301                       (Unspecified)
system.caches.L1Cache_Controller.IS.Data_all_Acks |       16175     14.07%     14.07% |       12432     10.81%     24.88% |       13885     12.07%     36.95% |       13941     12.12%     49.07% |       15112     13.14%     62.22% |       13539     11.77%     73.99% |       14970     13.02%     87.01% |       14940     12.99%    100.00% (Unspecified)
system.caches.L1Cache_Controller.IS.Data_all_Acks::total       114994                       (Unspecified)
system.caches.L1Cache_Controller.IM.L1_Replacement |           0      0.00%      0.00% |           0      0.00%      0.00% |           0      0.00%      0.00% |           0      0.00%      0.00% |           0      0.00%      0.00% |           1    100.00%    100.00% |           0      0.00%    100.00% |           0      0.00%    100.00% (Unspecified)
system.caches.L1Cache_Controller.IM.L1_Replacement::total            1                       (Unspecified)
system.caches.L1Cache_Controller.IM.Data |         154    100.00%    100.00% |           0      0.00%    100.00% |           0      0.00%    100.00% |           0      0.00%    100.00% |           0      0.00%    100.00% |           0      0.00%    100.00% |           0      0.00%    100.00% |           0      0.00%    100.00% (Unspecified)
system.caches.L1Cache_Controller.IM.Data::total          154                       (Unspecified)
system.caches.L1Cache_Controller.IM.Data_all_Acks |      255070     12.56%     12.56% |      254143     12.51%     25.08% |      254190     12.52%     37.59% |      253625     12.49%     50.08% |      253186     12.47%     62.55% |      254817     12.55%     75.10% |      253230     12.47%     87.57% |      252448     12.43%    100.00% (Unspecified)
system.caches.L1Cache_Controller.IM.Data_all_Acks::total      2030709                       (Unspecified)
system.caches.L1Cache_Controller.SM.Ack  |        1973     88.52%     88.52% |          15      0.67%     89.19% |          14      0.63%     89.82% |          49      2.20%     92.01% |         114      5.11%     97.13% |          15      0.67%     97.80% |          20      0.90%     98.70% |          29      1.30%    100.00% (Unspecified)
system.caches.L1Cache_Controller.SM.Ack::total         2229                       (Unspecified)
system.caches.L1Cache_Controller.SM.Ack_all |         470     74.96%     74.96% |          15      2.39%     77.35% |          14      2.23%     79.59% |          32      5.10%     84.69% |          38      6.06%     90.75% |          15      2.39%     93.14% |          20      3.19%     96.33% |          23      3.67%    100.00% (Unspecified)
system.caches.L1Cache_Controller.SM.Ack_all::total          627                       (Unspecified)
system.caches.L1Cache_Controller.IS_I.Data_all_Acks |           0      0.00%      0.00% |          14     14.43%     14.43% |          22     22.68%     37.11% |          23     23.71%     60.82% |          12     12.37%     73.20% |           8      8.25%     81.44% |           8      8.25%     89.69% |          10     10.31%    100.00% (Unspecified)
system.caches.L1Cache_Controller.IS_I.Data_all_Acks::total           97                       (Unspecified)
system.caches.L1Cache_Controller.M_I.Load |           0      0.00%      0.00% |           2    100.00%    100.00% |           0      0.00%    100.00% |           0      0.00%    100.00% |           0      0.00%    100.00% |           0      0.00%    100.00% |           0      0.00%    100.00% |           0      0.00%    100.00% (Unspecified)
system.caches.L1Cache_Controller.M_I.Load::total            2                       (Unspecified)
system.caches.L1Cache_Controller.M_I.Store |           0      0.00%      0.00% |           1     20.00%     20.00% |           1     20.00%     40.00% |           0      0.00%     40.00% |           0      0.00%     40.00% |           3     60.00%    100.00% |           0      0.00%    100.00% |           0      0.00%    100.00% (Unspecified)
system.caches.L1Cache_Controller.M_I.Store::total            5                       (Unspecified)
system.caches.L1Cache_Controller.M_I.Inv |           0      0.00%      0.00% |           0      0.00%      0.00% |           0      0.00%      0.00% |           1     14.29%     14.29% |           0      0.00%     14.29% |           3     42.86%     57.14% |           1     14.29%     71.43% |           2     28.57%    100.00% (Unspecified)
system.caches.L1Cache_Controller.M_I.Inv::total            7                       (Unspecified)
system.caches.L1Cache_Controller.M_I.WB_Ack |      825399     12.55%     12.55% |      821854     12.50%     25.05% |      822541     12.51%     37.56% |      825901     12.56%     50.11% |      819622     12.46%     62.58% |      821002     12.48%     75.06% |      820561     12.48%     87.54% |      819405     12.46%    100.00% (Unspecified)
system.caches.L1Cache_Controller.M_I.WB_Ack::total      6576285                       (Unspecified)
system.caches.L1Cache_Controller.SINK_WB_ACK.WB_Ack |           0      0.00%      0.00% |           0      0.00%      0.00% |           0      0.00%      0.00% |           1     14.29%     14.29% |           0      0.00%     14.29% |           3     42.86%     57.14% |           1     14.29%     71.43% |           2     28.57%    100.00% (Unspecified)
system.caches.L1Cache_Controller.SINK_WB_ACK.WB_Ack::total            7                       (Unspecified)
system.caches.Directory_Controller.Fetch |        8931      0.14%      0.14% |     6581994     99.86%    100.00% (Unspecified)
system.caches.Directory_Controller.Fetch::total      6590925                       (Unspecified)
system.caches.Directory_Controller.Data  |         349      0.01%      0.01% |     2649950     99.99%    100.00% (Unspecified)
system.caches.Directory_Controller.Data::total      2650299                       (Unspecified)
system.caches.Directory_Controller.Memory_Data |        8931      0.14%      0.14% |     6581989     99.86%    100.00% (Unspecified)
system.caches.Directory_Controller.Memory_Data::total      6590920                       (Unspecified)
system.caches.Directory_Controller.Memory_Ack |         349      0.01%      0.01% |     2649950     99.99%    100.00% (Unspecified)
system.caches.Directory_Controller.Memory_Ack::total      2650299                       (Unspecified)
system.caches.Directory_Controller.CleanReplacement |        8575      0.22%      0.22% |     3932051     99.78%    100.00% (Unspecified)
system.caches.Directory_Controller.CleanReplacement::total      3940626                       (Unspecified)
system.caches.Directory_Controller.I.Fetch |        8931      0.14%      0.14% |     6581994     99.86%    100.00% (Unspecified)
system.caches.Directory_Controller.I.Fetch::total      6590925                       (Unspecified)
system.caches.Directory_Controller.M.Data |         349      0.01%      0.01% |     2649950     99.99%    100.00% (Unspecified)
system.caches.Directory_Controller.M.Data::total      2650299                       (Unspecified)
system.caches.Directory_Controller.M.CleanReplacement |        8575      0.22%      0.22% |     3932051     99.78%    100.00% (Unspecified)
system.caches.Directory_Controller.M.CleanReplacement::total      3940626                       (Unspecified)
system.caches.Directory_Controller.IM.Memory_Data |        8931      0.14%      0.14% |     6581989     99.86%    100.00% (Unspecified)
system.caches.Directory_Controller.IM.Memory_Data::total      6590920                       (Unspecified)
system.caches.Directory_Controller.MI.Memory_Ack |         349      0.01%      0.01% |     2649950     99.99%    100.00% (Unspecified)
system.caches.Directory_Controller.MI.Memory_Ack::total      2650299                       (Unspecified)
system.caches.L2Cache_Controller.L1_GET_INSTR |        9687     12.85%     12.85% |       10705     14.20%     27.04% |        8486     11.25%     38.30% |        6999      9.28%     47.58% |        9226     12.24%     59.81% |       10068     13.35%     73.17% |       10142     13.45%     86.62% |       10092     13.38%    100.00% (Unspecified)
system.caches.L2Cache_Controller.L1_GET_INSTR::total        75405                       (Unspecified)
system.caches.L2Cache_Controller.L1_GETS |      582564     12.58%     12.58% |      579180     12.51%     25.09% |      578599     12.49%     37.58% |      577386     12.47%     50.05% |      577361     12.47%     62.52% |      578327     12.49%     75.01% |      578116     12.48%     87.49% |      579184     12.51%    100.00% (Unspecified)
system.caches.L2Cache_Controller.L1_GETS::total      4630717                       (Unspecified)
system.caches.L2Cache_Controller.L1_GETX |      254417     12.53%     12.53% |      253725     12.49%     25.02% |      252510     12.43%     37.45% |      253312     12.47%     49.92% |      253835     12.50%     62.42% |      254962     12.55%     74.97% |      253898     12.50%     87.48% |      254383     12.52%    100.00% (Unspecified)
system.caches.L2Cache_Controller.L1_GETX::total      2031042                       (Unspecified)
system.caches.L2Cache_Controller.L1_UPGRADE |          26      4.82%      4.82% |          75     13.91%     18.74% |          50      9.28%     28.01% |          13      2.41%     30.43% |          51      9.46%     39.89% |          18      3.34%     43.23% |         294     54.55%     97.77% |          12      2.23%    100.00% (Unspecified)
system.caches.L2Cache_Controller.L1_UPGRADE::total          539                       (Unspecified)
system.caches.L2Cache_Controller.L1_PUTX |      822123     12.50%     12.50% |      822205     12.50%     25.00% |      820183     12.47%     37.48% |      821582     12.49%     49.97% |      821974     12.50%     62.47% |      823861     12.53%     75.00% |      821928     12.50%     87.49% |      822429     12.51%    100.00% (Unspecified)
system.caches.L2Cache_Controller.L1_PUTX::total      6576285                       (Unspecified)
system.caches.L2Cache_Controller.L1_PUTX_old |           2     14.29%     14.29% |           2     14.29%     28.57% |           0      0.00%     28.57% |           4     28.57%     57.14% |           0      0.00%     57.14% |           2     14.29%     71.43% |           2     14.29%     85.71% |           2     14.29%    100.00% (Unspecified)
system.caches.L2Cache_Controller.L1_PUTX_old::total           14                       (Unspecified)
system.caches.L2Cache_Controller.L2_Replacement |      329286     12.51%     12.51% |      328753     12.49%     25.00% |      328274     12.47%     37.48% |      328827     12.49%     49.97% |      328741     12.49%     62.46% |      329640     12.53%     74.99% |      328902     12.50%     87.48% |      329380     12.52%    100.00% (Unspecified)
system.caches.L2Cache_Controller.L2_Replacement::total      2631803                       (Unspecified)
system.caches.L2Cache_Controller.L2_Replacement_clean |      494898     12.50%     12.50% |      495120     12.51%     25.01% |      494152     12.48%     37.49% |      494654     12.49%     49.98% |      495133     12.51%     62.49% |      495526     12.52%     75.00% |      494739     12.50%     87.50% |      494900     12.50%    100.00% (Unspecified)
system.caches.L2Cache_Controller.L2_Replacement_clean::total      3959122                       (Unspecified)
system.caches.L2Cache_Controller.Mem_Data |      824184     12.50%     12.50% |      823873     12.50%     25.00% |      822426     12.48%     37.48% |      823481     12.49%     49.98% |      823872     12.50%     62.48% |      825165     12.52%     75.00% |      823639     12.50%     87.49% |      824279     12.51%    100.00% (Unspecified)
system.caches.L2Cache_Controller.Mem_Data::total      6590919                       (Unspecified)
system.caches.L2Cache_Controller.Mem_Ack |      824184     12.50%     12.50% |      823873     12.50%     25.00% |      822426     12.48%     37.48% |      823481     12.49%     49.98% |      823874     12.50%     62.48% |      825166     12.52%     75.00% |      823641     12.50%     87.49% |      824280     12.51%    100.00% (Unspecified)
system.caches.L2Cache_Controller.Mem_Ack::total      6590925                       (Unspecified)
system.caches.L2Cache_Controller.WB_Data |        2608     13.06%     13.06% |        2470     12.37%     25.43% |        2129     10.66%     36.09% |        2379     11.91%     48.01% |        2288     11.46%     59.47% |        2691     13.48%     72.94% |        2751     13.78%     86.72% |        2652     13.28%    100.00% (Unspecified)
system.caches.L2Cache_Controller.WB_Data::total        19968                       (Unspecified)
system.caches.L2Cache_Controller.WB_Data_clean |         401     15.50%     15.50% |         317     12.25%     27.75% |         330     12.76%     40.51% |         306     11.83%     52.34% |         267     10.32%     62.66% |         300     11.60%     74.26% |         330     12.76%     87.01% |         336     12.99%    100.00% (Unspecified)
system.caches.L2Cache_Controller.WB_Data_clean::total         2587                       (Unspecified)
system.caches.L2Cache_Controller.Ack     |        9222     15.06%     15.06% |        7974     13.02%     28.08% |        7383     12.06%     40.13% |        6492     10.60%     50.73% |        7762     12.67%     63.41% |        7734     12.63%     76.04% |        6921     11.30%     87.34% |        7755     12.66%    100.00% (Unspecified)
system.caches.L2Cache_Controller.Ack::total        61243                       (Unspecified)
system.caches.L2Cache_Controller.Ack_all |        4590     13.14%     13.14% |        4628     13.25%     26.39% |        4263     12.20%     38.59% |        4099     11.73%     50.32% |        4358     12.47%     62.79% |        4462     12.77%     75.57% |        4123     11.80%     87.37% |        4413     12.63%    100.00% (Unspecified)
system.caches.L2Cache_Controller.Ack_all::total        34936                       (Unspecified)
system.caches.L2Cache_Controller.Unblock |         554     16.78%     16.78% |         398     12.06%     28.84% |         389     11.78%     40.62% |         360     10.91%     51.53% |         313      9.48%     61.01% |         319      9.66%     70.68% |         620     18.78%     89.46% |         348     10.54%    100.00% (Unspecified)
system.caches.L2Cache_Controller.Unblock::total         3301                       (Unspecified)
system.caches.L2Cache_Controller.Exclusive_Unblock |      827487     12.50%     12.50% |      827544     12.50%     25.01% |      824981     12.47%     37.47% |      826551     12.49%     49.96% |      826991     12.50%     62.46% |      829395     12.53%     74.99% |      827243     12.50%     87.49% |      827750     12.51%    100.00% (Unspecified)
system.caches.L2Cache_Controller.Exclusive_Unblock::total      6617942                       (Unspecified)
system.caches.L2Cache_Controller.NP.L1_GET_INSTR |        1307     13.57%     13.57% |        1335     13.86%     27.43% |        1171     12.16%     39.59% |        1064     11.05%     50.64% |        1236     12.83%     63.47% |        1184     12.29%     75.77% |        1084     11.26%     87.02% |        1250     12.98%    100.00% (Unspecified)
system.caches.L2Cache_Controller.NP.L1_GET_INSTR::total         9631                       (Unspecified)
system.caches.L2Cache_Controller.NP.L1_GETS |      569658     12.50%     12.50% |      569610     12.50%     25.00% |      568944     12.48%     37.48% |      569647     12.50%     49.98% |      569769     12.50%     62.48% |      570502     12.52%     75.00% |      569505     12.50%     87.50% |      569722     12.50%    100.00% (Unspecified)
system.caches.L2Cache_Controller.NP.L1_GETS::total      4557357                       (Unspecified)
system.caches.L2Cache_Controller.NP.L1_GETX |      253219     12.51%     12.51% |      252928     12.50%     25.01% |      252311     12.47%     37.47% |      252770     12.49%     49.96% |      252869     12.49%     62.46% |      253480     12.52%     74.98% |      253052     12.50%     87.48% |      253308     12.52%    100.00% (Unspecified)
system.caches.L2Cache_Controller.NP.L1_GETX::total      2023937                       (Unspecified)
system.caches.L2Cache_Controller.NP.L1_PUTX_old |           1     14.29%     14.29% |           1     14.29%     28.57% |           0      0.00%     28.57% |           2     28.57%     57.14% |           0      0.00%     57.14% |           1     14.29%     71.43% |           1     14.29%     85.71% |           1     14.29%    100.00% (Unspecified)
system.caches.L2Cache_Controller.NP.L1_PUTX_old::total            7                       (Unspecified)
system.caches.L2Cache_Controller.SS.L1_GET_INSTR |        6744     12.62%     12.62% |        7686     14.39%     27.01% |        5998     11.23%     38.23% |        4512      8.44%     46.68% |        6430     12.03%     58.71% |        7173     13.43%     72.14% |        7624     14.27%     86.41% |        7263     13.59%    100.00% (Unspecified)
system.caches.L2Cache_Controller.SS.L1_GET_INSTR::total        53430                       (Unspecified)
system.caches.L2Cache_Controller.SS.L1_GETS |        8397     22.67%     22.67% |        4680     12.64%     35.31% |        5419     14.63%     49.94% |        3429      9.26%     59.20% |        3481      9.40%     68.60% |        3132      8.46%     77.05% |        3445      9.30%     86.35% |        5054     13.65%    100.00% (Unspecified)
system.caches.L2Cache_Controller.SS.L1_GETS::total        37037                       (Unspecified)
system.caches.L2Cache_Controller.SS.L1_GETX |         105     68.18%     68.18% |           0      0.00%     68.18% |           0      0.00%     68.18% |           0      0.00%     68.18% |           0      0.00%     68.18% |           0      0.00%     68.18% |          49     31.82%    100.00% |           0      0.00%    100.00% (Unspecified)
system.caches.L2Cache_Controller.SS.L1_GETX::total          154                       (Unspecified)
system.caches.L2Cache_Controller.SS.L1_UPGRADE |          26      5.50%      5.50% |          75     15.86%     21.35% |          50     10.57%     31.92% |          13      2.75%     34.67% |          51     10.78%     45.45% |          18      3.81%     49.26% |         228     48.20%     97.46% |          12      2.54%    100.00% (Unspecified)
system.caches.L2Cache_Controller.SS.L1_UPGRADE::total          473                       (Unspecified)
system.caches.L2Cache_Controller.SS.L2_Replacement |          30     22.06%     22.06% |          15     11.03%     33.09% |          11      8.09%     41.18% |          52     38.24%     79.41% |           3      2.21%     81.62% |           3      2.21%     83.82% |          21     15.44%     99.26% |           1      0.74%    100.00% (Unspecified)
system.caches.L2Cache_Controller.SS.L2_Replacement::total          136                       (Unspecified)
system.caches.L2Cache_Controller.SS.L2_Replacement_clean |        1800     14.32%     14.32% |        1677     13.35%     27.67% |        1550     12.33%     40.00% |        1391     11.07%     51.07% |        1540     12.26%     63.33% |        1539     12.25%     75.58% |        1420     11.30%     86.88% |        1649     13.12%    100.00% (Unspecified)
system.caches.L2Cache_Controller.SS.L2_Replacement_clean::total        12566                       (Unspecified)
system.caches.L2Cache_Controller.M.L1_GET_INSTR |           0      0.00%      0.00% |           2     25.00%     25.00% |           1     12.50%     37.50% |           0      0.00%     37.50% |           0      0.00%     37.50% |           1     12.50%     50.00% |           2     25.00%     75.00% |           2     25.00%    100.00% (Unspecified)
system.caches.L2Cache_Controller.M.L1_GET_INSTR::total            8                       (Unspecified)
system.caches.L2Cache_Controller.M.L1_GETS |        3553     11.84%     11.84% |        4232     14.11%     25.95% |        3576     11.92%     37.87% |        3657     12.19%     50.07% |        3515     11.72%     61.78% |        4030     13.43%     75.22% |        3677     12.26%     87.48% |        3757     12.52%    100.00% (Unspecified)
system.caches.L2Cache_Controller.M.L1_GETS::total        29997                       (Unspecified)
system.caches.L2Cache_Controller.M.L1_GETX |        1055     16.06%     16.06% |         748     11.39%     27.45% |         178      2.71%     30.16% |         532      8.10%     38.26% |         827     12.59%     50.85% |        1398     21.29%     72.14% |         785     11.95%     84.09% |        1045     15.91%    100.00% (Unspecified)
system.caches.L2Cache_Controller.M.L1_GETX::total         6568                       (Unspecified)
system.caches.L2Cache_Controller.M.L2_Replacement |      329120     12.51%     12.51% |      328645     12.49%     25.00% |      328237     12.48%     37.48% |      328705     12.49%     49.97% |      328662     12.49%     62.46% |      329503     12.52%     74.99% |      328786     12.50%     87.49% |      329233     12.51%    100.00% (Unspecified)
system.caches.L2Cache_Controller.M.L2_Replacement::total      2630891                       (Unspecified)
system.caches.L2Cache_Controller.M.L2_Replacement_clean |      488019     12.49%     12.49% |      488211     12.50%     24.99% |      487856     12.49%     37.48% |      488352     12.50%     49.99% |      488612     12.51%     62.50% |      488529     12.51%     75.01% |      488271     12.50%     87.51% |      487994     12.49%    100.00% (Unspecified)
system.caches.L2Cache_Controller.M.L2_Replacement_clean::total      3905844                       (Unspecified)
system.caches.L2Cache_Controller.MT.L1_GETS |         554     16.78%     16.78% |         398     12.06%     28.84% |         389     11.78%     40.62% |         360     10.91%     51.53% |         313      9.48%     61.01% |         319      9.66%     70.68% |         620     18.78%     89.46% |         348     10.54%    100.00% (Unspecified)
system.caches.L2Cache_Controller.MT.L1_GETS::total         3301                       (Unspecified)
system.caches.L2Cache_Controller.MT.L1_GETX |          15      7.18%      7.18% |          29     13.88%     21.05% |          18      8.61%     29.67% |           6      2.87%     32.54% |          52     24.88%     57.42% |          66     31.58%     89.00% |           7      3.35%     92.34% |          16      7.66%    100.00% (Unspecified)
system.caches.L2Cache_Controller.MT.L1_GETX::total          209                       (Unspecified)
system.caches.L2Cache_Controller.MT.L1_PUTX |      822123     12.50%     12.50% |      822205     12.50%     25.00% |      820183     12.47%     37.48% |      821582     12.49%     49.97% |      821974     12.50%     62.47% |      823861     12.53%     75.00% |      821928     12.50%     87.49% |      822429     12.51%    100.00% (Unspecified)
system.caches.L2Cache_Controller.MT.L1_PUTX::total      6576285                       (Unspecified)
system.caches.L2Cache_Controller.MT.L2_Replacement |         136     17.53%     17.53% |          93     11.98%     29.51% |          26      3.35%     32.86% |          70      9.02%     41.88% |          76      9.79%     51.68% |         134     17.27%     68.94% |          95     12.24%     81.19% |         146     18.81%    100.00% (Unspecified)
system.caches.L2Cache_Controller.MT.L2_Replacement::total          776                       (Unspecified)
system.caches.L2Cache_Controller.MT.L2_Replacement_clean |        5079     12.48%     12.48% |        5232     12.85%     25.33% |        4746     11.66%     36.98% |        4911     12.06%     49.05% |        4981     12.23%     61.28% |        5458     13.41%     74.69% |        5048     12.40%     87.09% |        5257     12.91%    100.00% (Unspecified)
system.caches.L2Cache_Controller.MT.L2_Replacement_clean::total        40712                       (Unspecified)
system.caches.L2Cache_Controller.M_I.L1_GET_INSTR |           3     10.00%     10.00% |          12     40.00%     50.00% |           4     13.33%     63.33% |           3     10.00%     73.33% |           6     20.00%     93.33% |           0      0.00%     93.33% |           1      3.33%     96.67% |           1      3.33%    100.00% (Unspecified)
system.caches.L2Cache_Controller.M_I.L1_GET_INSTR::total           30                       (Unspecified)
system.caches.L2Cache_Controller.M_I.L1_GETS |           9     14.29%     14.29% |           9     14.29%     28.57% |          12     19.05%     47.62% |           8     12.70%     60.32% |           4      6.35%     66.67% |           2      3.17%     69.84% |          10     15.87%     85.71% |           9     14.29%    100.00% (Unspecified)
system.caches.L2Cache_Controller.M_I.L1_GETS::total           63                       (Unspecified)
system.caches.L2Cache_Controller.M_I.L1_GETX |          23     30.26%     30.26% |           9     11.84%     42.11% |           1      1.32%     43.42% |           4      5.26%     48.68% |           5      6.58%     55.26% |          15     19.74%     75.00% |           5      6.58%     81.58% |          14     18.42%    100.00% (Unspecified)
system.caches.L2Cache_Controller.M_I.L1_GETX::total           76                       (Unspecified)
system.caches.L2Cache_Controller.M_I.Mem_Ack |      824184     12.50%     12.50% |      823873     12.50%     25.00% |      822426     12.48%     37.48% |      823481     12.49%     49.98% |      823874     12.50%     62.48% |      825166     12.52%     75.00% |      823641     12.50%     87.49% |      824280     12.51%    100.00% (Unspecified)
system.caches.L2Cache_Controller.M_I.Mem_Ack::total      6590925                       (Unspecified)
system.caches.L2Cache_Controller.MT_I.WB_Data |         132     17.51%     17.51% |          89     11.80%     29.31% |          26      3.45%     32.76% |          70      9.28%     42.04% |          71      9.42%     51.46% |         134     17.77%     69.23% |          89     11.80%     81.03% |         143     18.97%    100.00% (Unspecified)
system.caches.L2Cache_Controller.MT_I.WB_Data::total          754                       (Unspecified)
system.caches.L2Cache_Controller.MT_I.Ack_all |           4     18.18%     18.18% |           4     18.18%     36.36% |           0      0.00%     36.36% |           0      0.00%     36.36% |           5     22.73%     59.09% |           0      0.00%     59.09% |           6     27.27%     86.36% |           3     13.64%    100.00% (Unspecified)
system.caches.L2Cache_Controller.MT_I.Ack_all::total           22                       (Unspecified)
system.caches.L2Cache_Controller.MCT_I.L1_PUTX_old |           1     14.29%     14.29% |           1     14.29%     28.57% |           0      0.00%     28.57% |           2     28.57%     57.14% |           0      0.00%     57.14% |           1     14.29%     71.43% |           1     14.29%     85.71% |           1     14.29%    100.00% (Unspecified)
system.caches.L2Cache_Controller.MCT_I.L1_PUTX_old::total            7                       (Unspecified)
system.caches.L2Cache_Controller.MCT_I.WB_Data |        2322     12.55%     12.55% |        2300     12.44%     24.99% |        2044     11.05%     36.04% |        2253     12.18%     48.22% |        2171     11.74%     59.96% |        2538     13.72%     73.68% |        2372     12.82%     86.51% |        2496     13.49%    100.00% (Unspecified)
system.caches.L2Cache_Controller.MCT_I.WB_Data::total        18496                       (Unspecified)
system.caches.L2Cache_Controller.MCT_I.WB_Data_clean |           1     25.00%     25.00% |           0      0.00%     25.00% |           0      0.00%     25.00% |           2     50.00%     75.00% |           0      0.00%     75.00% |           0      0.00%     75.00% |           0      0.00%     75.00% |           1     25.00%    100.00% (Unspecified)
system.caches.L2Cache_Controller.MCT_I.WB_Data_clean::total            4                       (Unspecified)
system.caches.L2Cache_Controller.MCT_I.Ack_all |        2756     12.41%     12.41% |        2932     13.20%     25.61% |        2702     12.16%     37.77% |        2656     11.96%     49.73% |        2810     12.65%     62.38% |        2920     13.15%     75.53% |        2676     12.05%     87.57% |        2760     12.43%    100.00% (Unspecified)
system.caches.L2Cache_Controller.MCT_I.Ack_all::total        22212                       (Unspecified)
system.caches.L2Cache_Controller.I_I.Ack |        9021     14.86%     14.86% |        7891     13.00%     27.86% |        7324     12.06%     39.92% |        6404     10.55%     50.47% |        7747     12.76%     63.23% |        7731     12.73%     75.96% |        6840     11.27%     87.23% |        7754     12.77%    100.00% (Unspecified)
system.caches.L2Cache_Controller.I_I.Ack::total        60712                       (Unspecified)
system.caches.L2Cache_Controller.I_I.Ack_all |        1800     14.32%     14.32% |        1677     13.35%     27.67% |        1550     12.33%     40.00% |        1391     11.07%     51.07% |        1540     12.26%     63.33% |        1539     12.25%     75.58% |        1420     11.30%     86.88% |        1649     13.12%    100.00% (Unspecified)
system.caches.L2Cache_Controller.I_I.Ack_all::total        12566                       (Unspecified)
system.caches.L2Cache_Controller.S_I.Ack |         201     37.85%     37.85% |          83     15.63%     53.48% |          59     11.11%     64.60% |          88     16.57%     81.17% |          15      2.82%     83.99% |           3      0.56%     84.56% |          81     15.25%     99.81% |           1      0.19%    100.00% (Unspecified)
system.caches.L2Cache_Controller.S_I.Ack::total          531                       (Unspecified)
system.caches.L2Cache_Controller.S_I.Ack_all |          30     22.06%     22.06% |          15     11.03%     33.09% |          11      8.09%     41.18% |          52     38.24%     79.41% |           3      2.21%     81.62% |           3      2.21%     83.82% |          21     15.44%     99.26% |           1      0.74%    100.00% (Unspecified)
system.caches.L2Cache_Controller.S_I.Ack_all::total          136                       (Unspecified)
system.caches.L2Cache_Controller.ISS.L1_GETS |         144     19.28%     19.28% |          78     10.44%     29.72% |          96     12.85%     42.57% |          74      9.91%     52.48% |          90     12.05%     64.52% |          98     13.12%     77.64% |          58      7.76%     85.41% |         109     14.59%    100.00% (Unspecified)
system.caches.L2Cache_Controller.ISS.L1_GETS::total          747                       (Unspecified)
system.caches.L2Cache_Controller.ISS.Mem_Data |      569514     12.50%     12.50% |      569532     12.50%     25.00% |      568848     12.48%     37.48% |      569573     12.50%     49.98% |      569679     12.50%     62.48% |      570404     12.52%     75.00% |      569446     12.50%     87.50% |      569613     12.50%    100.00% (Unspecified)
system.caches.L2Cache_Controller.ISS.Mem_Data::total      4556609                       (Unspecified)
system.caches.L2Cache_Controller.IS.L1_GET_INSTR |        1633     13.27%     13.27% |        1670     13.57%     26.84% |        1312     10.66%     37.50% |        1420     11.54%     49.04% |        1554     12.63%     61.67% |        1710     13.90%     75.56% |        1431     11.63%     87.19% |        1576     12.81%    100.00% (Unspecified)
system.caches.L2Cache_Controller.IS.L1_GET_INSTR::total        12306                       (Unspecified)
system.caches.L2Cache_Controller.IS.L1_GETS |         219     18.48%     18.48% |         138     11.65%     30.13% |         120     10.13%     40.25% |         129     10.89%     51.14% |         124     10.46%     61.60% |         216     18.23%     79.83% |          97      8.19%     88.02% |         142     11.98%    100.00% (Unspecified)
system.caches.L2Cache_Controller.IS.L1_GETS::total         1185                       (Unspecified)
system.caches.L2Cache_Controller.IS.Mem_Data |        1451     13.98%     13.98% |        1413     13.62%     27.60% |        1267     12.21%     39.81% |        1138     10.97%     50.77% |        1326     12.78%     63.55% |        1282     12.35%     75.90% |        1142     11.00%     86.90% |        1359     13.10%    100.00% (Unspecified)
system.caches.L2Cache_Controller.IS.Mem_Data::total        10378                       (Unspecified)
system.caches.L2Cache_Controller.IM.L1_GETX |           0      0.00%      0.00% |           0      0.00%      0.00% |           1      3.12%      3.12% |           0      0.00%      3.12% |          28     87.50%     90.62% |           3      9.38%    100.00% |           0      0.00%    100.00% |           0      0.00%    100.00% (Unspecified)
system.caches.L2Cache_Controller.IM.L1_GETX::total           32                       (Unspecified)
system.caches.L2Cache_Controller.IM.Mem_Data |      253219     12.51%     12.51% |      252928     12.50%     25.01% |      252311     12.47%     37.47% |      252770     12.49%     49.96% |      252867     12.49%     62.46% |      253479     12.52%     74.98% |      253051     12.50%     87.48% |      253307     12.52%    100.00% (Unspecified)
system.caches.L2Cache_Controller.IM.Mem_Data::total      2023932                       (Unspecified)
system.caches.L2Cache_Controller.SS_MB.L1_GETS |           1      0.20%      0.20% |           0      0.00%      0.20% |           0      0.00%      0.20% |          42      8.45%      8.65% |          32      6.44%     15.09% |           0      0.00%     15.09% |         422     84.91%    100.00% |           0      0.00%    100.00% (Unspecified)
system.caches.L2Cache_Controller.SS_MB.L1_GETS::total          497                       (Unspecified)
system.caches.L2Cache_Controller.SS_MB.Exclusive_Unblock |         131     20.89%     20.89% |          75     11.96%     32.85% |          50      7.97%     40.83% |          13      2.07%     42.90% |          51      8.13%     51.04% |          18      2.87%     53.91% |         277     44.18%     98.09% |          12      1.91%    100.00% (Unspecified)
system.caches.L2Cache_Controller.SS_MB.Exclusive_Unblock::total          627                       (Unspecified)
system.caches.L2Cache_Controller.MT_MB.L1_GETS |           2     66.67%     66.67% |           1     33.33%    100.00% |           0      0.00%    100.00% |           0      0.00%    100.00% |           0      0.00%    100.00% |           0      0.00%    100.00% |           0      0.00%    100.00% |           0      0.00%    100.00% (Unspecified)
system.caches.L2Cache_Controller.MT_MB.L1_GETS::total            3                       (Unspecified)
system.caches.L2Cache_Controller.MT_MB.L1_GETX |           0      0.00%      0.00% |          11     16.67%     16.67% |           1      1.52%     18.18% |           0      0.00%     18.18% |          54     81.82%    100.00% |           0      0.00%    100.00% |           0      0.00%    100.00% |           0      0.00%    100.00% (Unspecified)
system.caches.L2Cache_Controller.MT_MB.L1_GETX::total           66                       (Unspecified)
system.caches.L2Cache_Controller.MT_MB.Exclusive_Unblock |      827356     12.50%     12.50% |      827469     12.50%     25.01% |      824931     12.47%     37.47% |      826538     12.49%     49.96% |      826940     12.50%     62.46% |      829377     12.53%     74.99% |      826966     12.50%     87.49% |      827738     12.51%    100.00% (Unspecified)
system.caches.L2Cache_Controller.MT_MB.Exclusive_Unblock::total      6617315                       (Unspecified)
system.caches.L2Cache_Controller.MT_IIB.L1_GETS |          23      4.42%      4.42% |          29      5.58%     10.00% |          43      8.27%     18.27% |          40      7.69%     25.96% |          32      6.15%     32.12% |          28      5.38%     37.50% |         282     54.23%     91.73% |          43      8.27%    100.00% (Unspecified)
system.caches.L2Cache_Controller.MT_IIB.L1_GETS::total          520                       (Unspecified)
system.caches.L2Cache_Controller.MT_IIB.WB_Data |         154     22.95%     22.95% |          81     12.07%     35.02% |          36      5.37%     40.39% |          35      5.22%     45.60% |          46      6.86%     52.46% |          19      2.83%     55.29% |         287     42.77%     98.06% |          13      1.94%    100.00% (Unspecified)
system.caches.L2Cache_Controller.MT_IIB.WB_Data::total          671                       (Unspecified)
system.caches.L2Cache_Controller.MT_IIB.WB_Data_clean |         400     15.49%     15.49% |         317     12.27%     27.76% |         330     12.78%     40.53% |         304     11.77%     52.30% |         267     10.34%     62.64% |         300     11.61%     74.25% |         330     12.78%     87.03% |         335     12.97%    100.00% (Unspecified)
system.caches.L2Cache_Controller.MT_IIB.WB_Data_clean::total         2583                       (Unspecified)
system.caches.L2Cache_Controller.MT_IIB.Unblock |           0      0.00%      0.00% |           0      0.00%      0.00% |          23     48.94%     48.94% |          21     44.68%     93.62% |           0      0.00%     93.62% |           0      0.00%     93.62% |           3      6.38%    100.00% |           0      0.00%    100.00% (Unspecified)
system.caches.L2Cache_Controller.MT_IIB.Unblock::total           47                       (Unspecified)
system.caches.L2Cache_Controller.MT_IB.WB_Data |           0      0.00%      0.00% |           0      0.00%      0.00% |          23     48.94%     48.94% |          21     44.68%     93.62% |           0      0.00%     93.62% |           0      0.00%     93.62% |           3      6.38%    100.00% |           0      0.00%    100.00% (Unspecified)
system.caches.L2Cache_Controller.MT_IB.WB_Data::total           47                       (Unspecified)
system.caches.L2Cache_Controller.MT_SB.L1_GETS |           4     40.00%     40.00% |           5     50.00%     90.00% |           0      0.00%     90.00% |           0      0.00%     90.00% |           1     10.00%    100.00% |           0      0.00%    100.00% |           0      0.00%    100.00% |           0      0.00%    100.00% (Unspecified)
system.caches.L2Cache_Controller.MT_SB.L1_GETS::total           10                       (Unspecified)
system.caches.L2Cache_Controller.MT_SB.L1_UPGRADE |           0      0.00%      0.00% |           0      0.00%      0.00% |           0      0.00%      0.00% |           0      0.00%      0.00% |           0      0.00%      0.00% |           0      0.00%      0.00% |          66    100.00%    100.00% |           0      0.00%    100.00% (Unspecified)
system.caches.L2Cache_Controller.MT_SB.L1_UPGRADE::total           66                       (Unspecified)
system.caches.L2Cache_Controller.MT_SB.Unblock |         554     17.03%     17.03% |         398     12.23%     29.26% |         366     11.25%     40.50% |         339     10.42%     50.92% |         313      9.62%     60.54% |         319      9.80%     70.34% |         617     18.96%     89.31% |         348     10.69%    100.00% (Unspecified)
system.caches.L2Cache_Controller.MT_SB.Unblock::total         3254                       (Unspecified)
system.caches.RequestType.LD.latency_hist_seqr::bucket_size         1024                       (Unspecified)
system.caches.RequestType.LD.latency_hist_seqr::max_bucket        10239                       (Unspecified)
system.caches.RequestType.LD.latency_hist_seqr::samples     57942553                       (Unspecified)
system.caches.RequestType.LD.latency_hist_seqr::mean    82.689695                       (Unspecified)
system.caches.RequestType.LD.latency_hist_seqr::gmean     1.722523                       (Unspecified)
system.caches.RequestType.LD.latency_hist_seqr::stdev   315.180679                       (Unspecified)
system.caches.RequestType.LD.latency_hist_seqr |    55968847     96.59%     96.59% |     1742874      3.01%     99.60% |      207840      0.36%     99.96% |       21074      0.04%    100.00% |        1753      0.00%    100.00% |         154      0.00%    100.00% |          11      0.00%    100.00% |           0      0.00%    100.00% |           0      0.00%    100.00% |           0      0.00%    100.00% (Unspecified)
system.caches.RequestType.LD.latency_hist_seqr::total     57942553                       (Unspecified)
system.caches.RequestType.LD.hit_latency_hist_seqr::bucket_size            1                       (Unspecified)
system.caches.RequestType.LD.hit_latency_hist_seqr::max_bucket            9                       (Unspecified)
system.caches.RequestType.LD.hit_latency_hist_seqr::samples     53312930                       (Unspecified)
system.caches.RequestType.LD.hit_latency_hist_seqr::mean     1.003265                       (Unspecified)
system.caches.RequestType.LD.hit_latency_hist_seqr::gmean     1.002266                       (Unspecified)
system.caches.RequestType.LD.hit_latency_hist_seqr::stdev     0.057047                       (Unspecified)
system.caches.RequestType.LD.hit_latency_hist_seqr |           0      0.00%      0.00% |    53138864     99.67%     99.67% |      174065      0.33%    100.00% |           1      0.00%    100.00% |           0      0.00%    100.00% |           0      0.00%    100.00% |           0      0.00%    100.00% |           0      0.00%    100.00% |           0      0.00%    100.00% |           0      0.00%    100.00% (Unspecified)
system.caches.RequestType.LD.hit_latency_hist_seqr::total     53312930                       (Unspecified)
system.caches.RequestType.LD.miss_latency_hist_seqr::bucket_size         1024                       (Unspecified)
system.caches.RequestType.LD.miss_latency_hist_seqr::max_bucket        10239                       (Unspecified)
system.caches.RequestType.LD.miss_latency_hist_seqr::samples      4629623                       (Unspecified)
system.caches.RequestType.LD.miss_latency_hist_seqr::mean  1023.358710                       (Unspecified)
system.caches.RequestType.LD.miss_latency_hist_seqr::gmean   879.894893                       (Unspecified)
system.caches.RequestType.LD.miss_latency_hist_seqr::stdev   530.648927                       (Unspecified)
system.caches.RequestType.LD.miss_latency_hist_seqr |     2655917     57.37%     57.37% |     1742874     37.65%     95.01% |      207840      4.49%     99.50% |       21074      0.46%     99.96% |        1753      0.04%    100.00% |         154      0.00%    100.00% |          11      0.00%    100.00% |           0      0.00%    100.00% |           0      0.00%    100.00% |           0      0.00%    100.00% (Unspecified)
system.caches.RequestType.LD.miss_latency_hist_seqr::total      4629623                       (Unspecified)
system.caches.RequestType.ST.latency_hist_seqr::bucket_size         1024                       (Unspecified)
system.caches.RequestType.ST.latency_hist_seqr::max_bucket        10239                       (Unspecified)
system.caches.RequestType.ST.latency_hist_seqr::samples     69543602                       (Unspecified)
system.caches.RequestType.ST.latency_hist_seqr::mean    25.996104                       (Unspecified)
system.caches.RequestType.ST.latency_hist_seqr::gmean     1.226086                       (Unspecified)
system.caches.RequestType.ST.latency_hist_seqr::stdev   165.996836                       (Unspecified)
system.caches.RequestType.ST.latency_hist_seqr |    68956685     99.16%     99.16% |      522295      0.75%     99.91% |       60187      0.09%     99.99% |        4225      0.01%    100.00% |         195      0.00%    100.00% |          15      0.00%    100.00% |           0      0.00%    100.00% |           0      0.00%    100.00% |           0      0.00%    100.00% |           0      0.00%    100.00% (Unspecified)
system.caches.RequestType.ST.latency_hist_seqr::total     69543602                       (Unspecified)
system.caches.RequestType.ST.hit_latency_hist_seqr::bucket_size         1024                       (Unspecified)
system.caches.RequestType.ST.hit_latency_hist_seqr::max_bucket        10239                       (Unspecified)
system.caches.RequestType.ST.hit_latency_hist_seqr::samples     67519187                       (Unspecified)
system.caches.RequestType.ST.hit_latency_hist_seqr::mean     1.021470                       (Unspecified)
system.caches.RequestType.ST.hit_latency_hist_seqr::gmean     1.011493                       (Unspecified)
system.caches.RequestType.ST.hit_latency_hist_seqr::stdev     2.848735                       (Unspecified)
system.caches.RequestType.ST.hit_latency_hist_seqr |    67519065    100.00%    100.00% |          89      0.00%    100.00% |          21      0.00%    100.00% |          11      0.00%    100.00% |           0      0.00%    100.00% |           1      0.00%    100.00% |           0      0.00%    100.00% |           0      0.00%    100.00% |           0      0.00%    100.00% |           0      0.00%    100.00% (Unspecified)
system.caches.RequestType.ST.hit_latency_hist_seqr::total     67519187                       (Unspecified)
system.caches.RequestType.ST.miss_latency_hist_seqr::bucket_size         1024                       (Unspecified)
system.caches.RequestType.ST.miss_latency_hist_seqr::max_bucket        10239                       (Unspecified)
system.caches.RequestType.ST.miss_latency_hist_seqr::samples      2024415                       (Unspecified)
system.caches.RequestType.ST.miss_latency_hist_seqr::mean   858.961169                       (Unspecified)
system.caches.RequestType.ST.miss_latency_hist_seqr::gmean   750.558892                       (Unspecified)
system.caches.RequestType.ST.miss_latency_hist_seqr::stdev   481.326796                       (Unspecified)
system.caches.RequestType.ST.miss_latency_hist_seqr |     1437620     71.01%     71.01% |      522206     25.80%     96.81% |       60166      2.97%     99.78% |        4214      0.21%     99.99% |         195      0.01%    100.00% |          14      0.00%    100.00% |           0      0.00%    100.00% |           0      0.00%    100.00% |           0      0.00%    100.00% |           0      0.00%    100.00% (Unspecified)
system.caches.RequestType.ST.miss_latency_hist_seqr::total      2024415                       (Unspecified)
system.caches.RequestType.IFETCH.latency_hist_seqr::bucket_size          512                       (Unspecified)
system.caches.RequestType.IFETCH.latency_hist_seqr::max_bucket         5119                       (Unspecified)
system.caches.RequestType.IFETCH.latency_hist_seqr::samples     22640086                       (Unspecified)
system.caches.RequestType.IFETCH.latency_hist_seqr::mean     1.407489                       (Unspecified)
system.caches.RequestType.IFETCH.latency_hist_seqr::gmean     1.011750                       (Unspecified)
system.caches.RequestType.IFETCH.latency_hist_seqr::stdev    16.590664                       (Unspecified)
system.caches.RequestType.IFETCH.latency_hist_seqr |    22636305     99.98%     99.98% |        2325      0.01%     99.99% |         971      0.00%    100.00% |         314      0.00%    100.00% |          80      0.00%    100.00% |          76      0.00%    100.00% |          13      0.00%    100.00% |           1      0.00%    100.00% |           1      0.00%    100.00% |           0      0.00%    100.00% (Unspecified)
system.caches.RequestType.IFETCH.latency_hist_seqr::total     22640086                       (Unspecified)
system.caches.RequestType.IFETCH.hit_latency_hist_seqr::bucket_size            1                       (Unspecified)
system.caches.RequestType.IFETCH.hit_latency_hist_seqr::max_bucket            9                       (Unspecified)
system.caches.RequestType.IFETCH.hit_latency_hist_seqr::samples     22564711                       (Unspecified)
system.caches.RequestType.IFETCH.hit_latency_hist_seqr::mean     1.000026                       (Unspecified)
system.caches.RequestType.IFETCH.hit_latency_hist_seqr::gmean     1.000018                       (Unspecified)
system.caches.RequestType.IFETCH.hit_latency_hist_seqr::stdev     0.005126                       (Unspecified)
system.caches.RequestType.IFETCH.hit_latency_hist_seqr |           0      0.00%      0.00% |    22564118    100.00%    100.00% |         593      0.00%    100.00% |           0      0.00%    100.00% |           0      0.00%    100.00% |           0      0.00%    100.00% |           0      0.00%    100.00% |           0      0.00%    100.00% |           0      0.00%    100.00% |           0      0.00%    100.00% (Unspecified)
system.caches.RequestType.IFETCH.hit_latency_hist_seqr::total     22564711                       (Unspecified)
system.caches.RequestType.IFETCH.miss_latency_hist_seqr::bucket_size          512                       (Unspecified)
system.caches.RequestType.IFETCH.miss_latency_hist_seqr::max_bucket         5119                       (Unspecified)
system.caches.RequestType.IFETCH.miss_latency_hist_seqr::samples        75375                       (Unspecified)
system.caches.RequestType.IFETCH.miss_latency_hist_seqr::mean   123.388046                       (Unspecified)
system.caches.RequestType.IFETCH.miss_latency_hist_seqr::gmean    33.220895                       (Unspecified)
system.caches.RequestType.IFETCH.miss_latency_hist_seqr::stdev   260.283887                       (Unspecified)
system.caches.RequestType.IFETCH.miss_latency_hist_seqr |       71594     94.98%     94.98% |        2325      3.08%     98.07% |         971      1.29%     99.36% |         314      0.42%     99.77% |          80      0.11%     99.88% |          76      0.10%     99.98% |          13      0.02%    100.00% |           1      0.00%    100.00% |           1      0.00%    100.00% |           0      0.00%    100.00% (Unspecified)
system.caches.RequestType.IFETCH.miss_latency_hist_seqr::total        75375                       (Unspecified)
system.caches.RequestType.RMW_Read.latency_hist_seqr::bucket_size          512                       (Unspecified)
system.caches.RequestType.RMW_Read.latency_hist_seqr::max_bucket         5119                       (Unspecified)
system.caches.RequestType.RMW_Read.latency_hist_seqr::samples       401792                       (Unspecified)
[...]
system.o3Cpu7.iew.predictedTakenIncorrect         8213                       # Number of branches that were predicted taken incorrectly (Count)
system.o3Cpu7.iew.predictedNotTakenIncorrect         3236                       # Number of branches that were predicted not taken incorrectly (Count)
system.o3Cpu7.iew.branchMispredicts             11449                       # Number of branch mispredicts detected at execute (Count)
system.o3Cpu7.iew.instsToCommit              62763265                       # Cumulative count of insts sent to commit (Count)
system.o3Cpu7.iew.writebackCount             62760696                       # Cumulative count of insts written-back (Count)
system.o3Cpu7.iew.producerInst               40191789                       # Number of instructions producing a value (Count)
system.o3Cpu7.iew.consumerInst               61071364                       # Number of instructions consuming a value (Count)
system.o3Cpu7.iew.wbRate                     0.174507                       # Insts written-back per cycle ((Count/Cycle))
system.o3Cpu7.iew.wbFanout                   0.658112                       # Average fanout of values written-back ((Count/Count))
system.o3Cpu7.interrupts.clk_domain.clock         3200                       # Clock period in ticks (Tick)
system.o3Cpu7.lsq0.forwLoads                   474975                       # Number of loads that had data forwarded from stores (Count)
system.o3Cpu7.lsq0.squashedLoads                36065                       # Number of loads squashed (Count)
system.o3Cpu7.lsq0.ignoredResponses                41                       # Number of memory responses ignored because the instruction is squashed (Count)
system.o3Cpu7.lsq0.memOrderViolation             1538                       # Number of memory ordering violations (Count)
system.o3Cpu7.lsq0.squashedStores               28625                       # Number of stores squashed (Count)
system.o3Cpu7.lsq0.rescheduledLoads                57                       # Number of loads that were rescheduled (Count)
system.o3Cpu7.lsq0.blockedByCache              337368                       # Number of times an access to memory failed due to the cache being blocked (Count)
system.o3Cpu7.lsq0.loadToUse::samples        12538160                       # Distribution of cycle latency between the first time a load is issued and its completion (Unspecified)
system.o3Cpu7.lsq0.loadToUse::mean         244.361855                       # Distribution of cycle latency between the first time a load is issued and its completion (Unspecified)
system.o3Cpu7.lsq0.loadToUse::stdev        513.129031                       # Distribution of cycle latency between the first time a load is issued and its completion (Unspecified)
system.o3Cpu7.lsq0.loadToUse::0-9             9245419     73.74%     73.74% # Distribution of cycle latency between the first time a load is issued and its completion (Unspecified)
system.o3Cpu7.lsq0.loadToUse::10-19             12352      0.10%     73.84% # Distribution of cycle latency between the first time a load is issued and its completion (Unspecified)
system.o3Cpu7.lsq0.loadToUse::20-29             22270      0.18%     74.01% # Distribution of cycle latency between the first time a load is issued and its completion (Unspecified)
system.o3Cpu7.lsq0.loadToUse::30-39             45905      0.37%     74.38% # Distribution of cycle latency between the first time a load is issued and its completion (Unspecified)
system.o3Cpu7.lsq0.loadToUse::40-49             73889      0.59%     74.97% # Distribution of cycle latency between the first time a load is issued and its completion (Unspecified)
system.o3Cpu7.lsq0.loadToUse::50-59             17522      0.14%     75.11% # Distribution of cycle latency between the first time a load is issued and its completion (Unspecified)
system.o3Cpu7.lsq0.loadToUse::60-69              3935      0.03%     75.14% # Distribution of cycle latency between the first time a load is issued and its completion (Unspecified)
system.o3Cpu7.lsq0.loadToUse::70-79             11498      0.09%     75.23% # Distribution of cycle latency between the first time a load is issued and its completion (Unspecified)
system.o3Cpu7.lsq0.loadToUse::80-89             20417      0.16%     75.40% # Distribution of cycle latency between the first time a load is issued and its completion (Unspecified)
system.o3Cpu7.lsq0.loadToUse::90-99             26651      0.21%     75.61% # Distribution of cycle latency between the first time a load is issued and its completion (Unspecified)
system.o3Cpu7.lsq0.loadToUse::100-109           10870      0.09%     75.69% # Distribution of cycle latency between the first time a load is issued and its completion (Unspecified)
system.o3Cpu7.lsq0.loadToUse::110-119            3856      0.03%     75.73% # Distribution of cycle latency between the first time a load is issued and its completion (Unspecified)
system.o3Cpu7.lsq0.loadToUse::120-129            8726      0.07%     75.80% # Distribution of cycle latency between the first time a load is issued and its completion (Unspecified)
system.o3Cpu7.lsq0.loadToUse::130-139           16112      0.13%     75.92% # Distribution of cycle latency between the first time a load is issued and its completion (Unspecified)
system.o3Cpu7.lsq0.loadToUse::140-149           18456      0.15%     76.07% # Distribution of cycle latency between the first time a load is issued and its completion (Unspecified)
system.o3Cpu7.lsq0.loadToUse::150-159            9450      0.08%     76.15% # Distribution of cycle latency between the first time a load is issued and its completion (Unspecified)
system.o3Cpu7.lsq0.loadToUse::160-169            4176      0.03%     76.18% # Distribution of cycle latency between the first time a load is issued and its completion (Unspecified)
system.o3Cpu7.lsq0.loadToUse::170-179            8157      0.07%     76.24% # Distribution of cycle latency between the first time a load is issued and its completion (Unspecified)
system.o3Cpu7.lsq0.loadToUse::180-189           14404      0.11%     76.36% # Distribution of cycle latency between the first time a load is issued and its completion (Unspecified)
system.o3Cpu7.lsq0.loadToUse::190-199           16984      0.14%     76.49% # Distribution of cycle latency between the first time a load is issued and its completion (Unspecified)
system.o3Cpu7.lsq0.loadToUse::200-209           10298      0.08%     76.58% # Distribution of cycle latency between the first time a load is issued and its completion (Unspecified)
system.o3Cpu7.lsq0.loadToUse::210-219            5091      0.04%     76.62% # Distribution of cycle latency between the first time a load is issued and its completion (Unspecified)
system.o3Cpu7.lsq0.loadToUse::220-229            8695      0.07%     76.69% # Distribution of cycle latency between the first time a load is issued and its completion (Unspecified)
system.o3Cpu7.lsq0.loadToUse::230-239           14768      0.12%     76.80% # Distribution of cycle latency between the first time a load is issued and its completion (Unspecified)
system.o3Cpu7.lsq0.loadToUse::240-249           17193      0.14%     76.94% # Distribution of cycle latency between the first time a load is issued and its completion (Unspecified)
system.o3Cpu7.lsq0.loadToUse::250-259           11526      0.09%     77.03% # Distribution of cycle latency between the first time a load is issued and its completion (Unspecified)
system.o3Cpu7.lsq0.loadToUse::260-269            6476      0.05%     77.09% # Distribution of cycle latency between the first time a load is issued and its completion (Unspecified)
system.o3Cpu7.lsq0.loadToUse::270-279           10245      0.08%     77.17% # Distribution of cycle latency between the first time a load is issued and its completion (Unspecified)
system.o3Cpu7.lsq0.loadToUse::280-289           16957      0.14%     77.30% # Distribution of cycle latency between the first time a load is issued and its completion (Unspecified)
system.o3Cpu7.lsq0.loadToUse::290-299           32301      0.26%     77.56% # Distribution of cycle latency between the first time a load is issued and its completion (Unspecified)
system.o3Cpu7.lsq0.loadToUse::overflows       2813561     22.44%    100.00% # Distribution of cycle latency between the first time a load is issued and its completion (Unspecified)
system.o3Cpu7.lsq0.loadToUse::min_value             2                       # Distribution of cycle latency between the first time a load is issued and its completion (Unspecified)
system.o3Cpu7.lsq0.loadToUse::max_value          6578                       # Distribution of cycle latency between the first time a load is issued and its completion (Unspecified)
system.o3Cpu7.lsq0.loadToUse::total          12538160                       # Distribution of cycle latency between the first time a load is issued and its completion (Unspecified)
system.o3Cpu7.mmu.dtb.rdAccesses             12569449                       # TLB accesses on read requests (Count)
system.o3Cpu7.mmu.dtb.wrAccesses              8785497                       # TLB accesses on write requests (Count)
system.o3Cpu7.mmu.dtb.rdMisses                   4833                       # TLB misses on read requests (Count)
system.o3Cpu7.mmu.dtb.wrMisses                   1973                       # TLB misses on write requests (Count)
system.o3Cpu7.mmu.dtb.walker.power_state.pwrStateResidencyTicks::UNDEFINED  73355359800                       # Cumulative time (in ticks) in various power states (Tick)
system.o3Cpu7.mmu.itb.rdAccesses                    0                       # TLB accesses on read requests (Count)
system.o3Cpu7.mmu.itb.wrAccesses              2883874                       # TLB accesses on write requests (Count)
system.o3Cpu7.mmu.itb.rdMisses                      0                       # TLB misses on read requests (Count)
system.o3Cpu7.mmu.itb.wrMisses                    276                       # TLB misses on write requests (Count)
system.o3Cpu7.mmu.itb.walker.power_state.pwrStateResidencyTicks::UNDEFINED  73355359800                       # Cumulative time (in ticks) in various power states (Tick)
system.o3Cpu7.power_state.numTransitions            4                       # Number of power state transitions (Count)
system.o3Cpu7.power_state.ticksClkGated::samples            2                       # Distribution of time spent in the clock gated state (Tick)
system.o3Cpu7.power_state.ticksClkGated::mean    207040300                       # Distribution of time spent in the clock gated state (Tick)
system.o3Cpu7.power_state.ticksClkGated::stdev 39495166.420462                       # Distribution of time spent in the clock gated state (Tick)
system.o3Cpu7.power_state.ticksClkGated::1000-5e+10            2    100.00%    100.00% # Distribution of time spent in the clock gated state (Tick)
system.o3Cpu7.power_state.ticksClkGated::min_value    179113000                       # Distribution of time spent in the clock gated state (Tick)
system.o3Cpu7.power_state.ticksClkGated::max_value    234967600                       # Distribution of time spent in the clock gated state (Tick)
system.o3Cpu7.power_state.ticksClkGated::total            2                       # Distribution of time spent in the clock gated state (Tick)
system.o3Cpu7.power_state.pwrStateResidencyTicks::ON  70267621400                       # Cumulative time (in ticks) in various power states (Tick)
system.o3Cpu7.power_state.pwrStateResidencyTicks::CLK_GATED    414080600                       # Cumulative time (in ticks) in various power states (Tick)
system.o3Cpu7.power_state.pwrStateResidencyTicks::OFF   2673657800                       # Cumulative time (in ticks) in various power states (Tick)
system.o3Cpu7.rename.squashCycles               12844                       # Number of cycles rename is squashing (Cycle)
system.o3Cpu7.rename.idleCycles               5722395                       # Number of cycles rename is idle (Cycle)
system.o3Cpu7.rename.blockCycles             67960348                       # Number of cycles rename is blocking (Cycle)
system.o3Cpu7.rename.serializeStallCycles       730862                       # count of cycles rename stalled for serializing inst (Cycle)
system.o3Cpu7.rename.runCycles                7346054                       # Number of cycles rename is running (Cycle)
system.o3Cpu7.rename.unblockCycles          265750616                       # Number of cycles rename is unblocking (Cycle)
system.o3Cpu7.rename.renamedInsts            62912466                       # Number of instructions processed by rename (Count)
system.o3Cpu7.rename.ROBFullEvents              40670                       # Number of times rename has blocked due to ROB full (Count)
system.o3Cpu7.rename.IQFullEvents            12025793                       # Number of times rename has blocked due to IQ full (Count)
system.o3Cpu7.rename.LQFullEvents            30795685                       # Number of times rename has blocked due to LQ full (Count)
system.o3Cpu7.rename.SQFullEvents           233559597                       # Number of times rename has blocked due to SQ full (Count)
system.o3Cpu7.rename.renamedOperands         81951209                       # Number of destination operands rename has renamed (Count)
system.o3Cpu7.rename.lookups                191596909                       # Number of register rename lookups that rename has made (Count)
system.o3Cpu7.rename.intLookups              47587410                       # Number of integer rename lookups (Count)
system.o3Cpu7.rename.fpLookups               52737788                       # Number of floating rename lookups (Count)
system.o3Cpu7.rename.committedMaps           81451173                       # Number of HB maps that are committed (Count)
system.o3Cpu7.rename.undoneMaps                500034                       # Number of HB maps that are undone due to squashing (Count)
system.o3Cpu7.rename.serializing                 3616                       # count of serializing insts renamed (Count)
system.o3Cpu7.rename.tempSerializing             3790                       # count of temporary serializing insts renamed (Count)
system.o3Cpu7.rename.skidInsts               20723241                       # count of insts added to the skid buffer (Count)
system.o3Cpu7.rob.reads                     407574906                       # The number of ROB reads (Count)
system.o3Cpu7.rob.writes                    125722212                       # The number of ROB writes (Count)
system.o3Cpu7.thread_0.numInsts              37687144                       # Number of Instructions committed (Count)
system.o3Cpu7.thread_0.numOps                62617835                       # Number of Ops committed (Count)
system.o3Cpu7.thread_0.numMemRefs                   0                       # Number of Memory References (Count)
system.pc.bad_addr.power_state.pwrStateResidencyTicks::UNDEFINED  73355359800                       # Cumulative time (in ticks) in various power states (Tick)
system.pc.com_1.power_state.pwrStateResidencyTicks::UNDEFINED  73355359800                       # Cumulative time (in ticks) in various power states (Tick)
system.pc.default_bus.power_state.pwrStateResidencyTicks::UNDEFINED  73355359800                       # Cumulative time (in ticks) in various power states (Tick)
system.pc.empty_isa.power_state.pwrStateResidencyTicks::UNDEFINED  73355359800                       # Cumulative time (in ticks) in various power states (Tick)
system.pc.fake_com_2.power_state.pwrStateResidencyTicks::UNDEFINED  73355359800                       # Cumulative time (in ticks) in various power states (Tick)
system.pc.fake_com_3.power_state.pwrStateResidencyTicks::UNDEFINED  73355359800                       # Cumulative time (in ticks) in various power states (Tick)
system.pc.fake_com_4.power_state.pwrStateResidencyTicks::UNDEFINED  73355359800                       # Cumulative time (in ticks) in various power states (Tick)
system.pc.fake_floppy.power_state.pwrStateResidencyTicks::UNDEFINED  73355359800                       # Cumulative time (in ticks) in various power states (Tick)
system.pc.pci_host.power_state.pwrStateResidencyTicks::UNDEFINED  73355359800                       # Cumulative time (in ticks) in various power states (Tick)
system.pc.south_bridge.cmos.power_state.pwrStateResidencyTicks::UNDEFINED  73355359800                       # Cumulative time (in ticks) in various power states (Tick)
system.pc.south_bridge.dma1.power_state.pwrStateResidencyTicks::UNDEFINED  73355359800                       # Cumulative time (in ticks) in various power states (Tick)
system.pc.south_bridge.ide.disks0.IdeDisk.dmaReadFullPages            0                       # Number of full page size DMA reads (not PRD). (Count)
system.pc.south_bridge.ide.disks0.IdeDisk.dmaReadBytes            0                       # Number of bytes transfered via DMA reads (not PRD). (Byte)
system.pc.south_bridge.ide.disks0.IdeDisk.dmaReadTxs            0                       # Number of DMA read transactions (not PRD). (Count)
system.pc.south_bridge.ide.disks0.IdeDisk.dmaWriteFullPages            0                       # Number of full page size DMA writes. (Count)
system.pc.south_bridge.ide.disks0.IdeDisk.dmaWriteBytes            0                       # Number of bytes transfered via DMA writes. (Byte)
system.pc.south_bridge.ide.disks0.IdeDisk.dmaWriteTxs            0                       # Number of DMA write transactions. (Count)
system.pc.south_bridge.ide.disks1.IdeDisk.dmaReadFullPages            0                       # Number of full page size DMA reads (not PRD). (Count)
system.pc.south_bridge.ide.disks1.IdeDisk.dmaReadBytes            0                       # Number of bytes transfered via DMA reads (not PRD). (Byte)
system.pc.south_bridge.ide.disks1.IdeDisk.dmaReadTxs            0                       # Number of DMA read transactions (not PRD). (Count)
system.pc.south_bridge.ide.disks1.IdeDisk.dmaWriteFullPages            0                       # Number of full page size DMA writes. (Count)
system.pc.south_bridge.ide.disks1.IdeDisk.dmaWriteBytes            0                       # Number of bytes transfered via DMA writes. (Byte)
system.pc.south_bridge.ide.disks1.IdeDisk.dmaWriteTxs            0                       # Number of DMA write transactions. (Count)
system.pc.south_bridge.ide.power_state.pwrStateResidencyTicks::UNDEFINED  73355359800                       # Cumulative time (in ticks) in various power states (Tick)
system.pc.south_bridge.io_apic.power_state.pwrStateResidencyTicks::UNDEFINED  73355359800                       # Cumulative time (in ticks) in various power states (Tick)
system.pc.south_bridge.keyboard.power_state.pwrStateResidencyTicks::UNDEFINED  73355359800                       # Cumulative time (in ticks) in various power states (Tick)
system.pc.south_bridge.pic1.power_state.pwrStateResidencyTicks::UNDEFINED  73355359800                       # Cumulative time (in ticks) in various power states (Tick)
system.pc.south_bridge.pic2.power_state.pwrStateResidencyTicks::UNDEFINED  73355359800                       # Cumulative time (in ticks) in various power states (Tick)
system.pc.south_bridge.pit.power_state.pwrStateResidencyTicks::UNDEFINED  73355359800                       # Cumulative time (in ticks) in various power states (Tick)
system.pc.south_bridge.speaker.power_state.pwrStateResidencyTicks::UNDEFINED  73355359800                       # Cumulative time (in ticks) in various power states (Tick)
system.workload.inst.arm                            0                       # number of arm instructions executed (Count)
system.workload.inst.quiesce                        0                       # number of quiesce instructions executed (Count)

---------- End Simulation Statistics   ----------
